docking/v2/isoforms/avb3/gate/pose_006.pdbqt
 OpenBabel09292623493D

 38 41  0  0  1  0  0  0  0  0999 V2000
   18.9300   42.0520   40.6400 C   0  0  0  0  0  0  0  0  0  0  0  0
   20.3030   41.7820   40.6150 N   0  0  0  0  0  0  0  0  0  0  0  0
   18.1510   41.1960   40.1850 O   0  0  0  0  0  0  0  0  0  0  0  0
   20.9650   42.4760   40.9910 H   0  0  0  0  0  0  0  0  0  0  0  0
   18.3850   43.3140   41.2190 C   0  0  0  0  0  0  0  0  0  0  0  0
   17.0450   43.7120   40.5690 C   0  0  0  0  0  0  0  0  0  0  0  0
   15.9600   44.2180   41.5100 C   0  0  0  0  0  0  0  0  0  0  0  0
   14.5540   43.7800   41.0510 C   0  0  0  0  0  0  0  0  0  0  0  0
   13.5940   43.4110   42.2090 C   0  0  0  0  0  0  0  0  0  0  0  0
   14.1420   42.8560   43.3820 C   0  0  0  0  0  0  0  0  0  0  0  0
   12.2680   43.6290   42.1130 N   0  0  0  0  0  0  0  0  0  0  0  0
   13.2890   42.5140   44.4550 C   0  0  0  0  0  0  0  0  0  0  0  0
   11.4230   43.2980   43.1470 C   0  0  0  0  0  0  0  0  0  0  0  0
   11.8900   42.7310   44.3600 C   0  0  0  0  0  0  0  0  0  0  0  0
   10.0080   43.5700   42.9500 N   0  0  0  0  0  0  0  0  0  0  0  0
   10.9690   42.3790   45.4910 C   0  0  0  0  0  0  0  0  0  0  0  0
    9.0750   42.7560   43.7320 C   0  0  0  0  0  0  0  0  0  0  0  0
    9.4370   42.5600   45.2280 C   0  0  0  0  0  0  0  0  0  0  0  0
    9.6800   44.2960   42.2970 H   0  0  0  0  0  0  0  0  0  0  0  0
   20.7960   40.5590   40.0740 C   0  0  0  0  0  0  0  0  0  0  0  0
   21.1160   39.5540   41.1710 C   0  0  0  0  0  0  0  0  0  0  0  0
   20.1390   38.3840   41.1040 C   0  0  1  0  0  0  0  0  0  0  0  0
   20.8880   37.0800   41.5460 C   0  0  0  0  0  0  0  0  0  0  0  0
   20.4680   35.9300   41.1570 O   0  0  0  0  0  0  0  0  0  0  0  0
   21.9240   37.2060   42.2900 O   0  0  0  0  0  0  0  0  0  0  0  0
   18.9260   38.5770   41.9140 N   0  0  0  0  0  0  0  0  0  0  0  0
   17.6810   38.0730   41.5410 C   0  0  0  0  0  0  0  0  0  0  0  0
   17.4590   37.4840   40.4800 O   0  0  0  0  0  0  0  0  0  0  0  0
   19.0000   39.1070   42.7940 H   0  0  0  0  0  0  0  0  0  0  0  0
   16.4710   38.2940   42.4650 C   0  0  0  0  0  0  0  0  0  0  0  0
   16.5020   38.4020   44.2800 S   0  0  0  0  0  0  0  0  0  0  0  0
   15.2120   38.4840   42.0410 N   0  0  0  0  0  0  0  0  0  0  0  0
   14.7340   38.6770   44.3880 C   0  0  0  0  0  0  0  0  0  0  0  0
   14.2460   38.6840   43.0720 C   0  0  0  0  0  0  0  0  0  0  0  0
   13.8590   38.8660   45.4750 C   0  0  0  0  0  0  0  0  0  0  0  0
   12.8540   38.8870   42.8450 C   0  0  0  0  0  0  0  0  0  0  0  0
   12.4790   39.0650   45.2450 C   0  0  0  0  0  0  0  0  0  0  0  0
   11.9720   39.0770   43.9220 C   0  0  0  0  0  0  0  0  0  0  0  0
  1  5  1  0  0  0  0
  2  1  1  0  0  0  0
  2  4  1  0  0  0  0
  3  1  2  0  0  0  0
  6  5  1  0  0  0  0
  6  7  1  0  0  0  0
  8  7  1  0  0  0  0
  8  9  1  0  0  0  0
  9 10  1  0  0  0  0
 10 12  2  0  0  0  0
 11  9  2  0  0  0  0
 11 13  1  0  0  0  0
 13 14  2  0  0  0  0
 14 12  1  0  0  0  0
 14 16  1  0  0  0  0
 15 13  1  0  0  0  0
 15 17  1  0  0  0  0
 17 18  1  0  0  0  0
 18 16  1  0  0  0  0
 19 15  1  0  0  0  0
 20  2  1  0  0  0  0
 20 21  1  0  0  0  0
 22 21  1  1  0  0  0
 22 23  1  0  0  0  0
 22 26  1  0  0  0  0
 23 25  1  0  0  0  0
 24 23  2  0  0  0  0
 26 29  1  0  0  0  0
 27 26  1  0  0  0  0
 27 30  1  0  0  0  0
 28 27  2  0  0  0  0
 30 31  1  0  0  0  0
 31 33  1  0  0  0  0
 32 30  2  0  0  0  0
 32 34  1  0  0  0  0
 33 35  1  0  0  0  0
 34 33  2  0  0  0  0
 36 34  1  0  0  0  0
 36 38  2  0  0  0  0
 37 35  2  0  0  0  0
 38 37  1  0  0  0  0
M  END
>  <MODEL>
6

>  <REMARK>
 VINA RESULT:    -8.299      3.758      7.198
 INTER + INTRA:         -14.904
 INTER:                 -12.196
 INTRA:                  -2.708
 UNBOUND:                -1.267
 SMILES O=C(CCCCc1ccc2c(n1)NCCC2)NCC[C@H](NC(=O)c1nc2ccccc2s1)C(=O)[O-]
 SMILES IDX 2 1 17 2 1 3 3 5 4 6 5 7 6 8 7 9 8 10 12 11 9 12 11 13 10 14
 SMILES IDX 13 15 16 16 14 17 15 18 18 20 19 21 20 22 33 23 34 24 35 25
 SMILES IDX 21 26 22 27 23 28 24 30 32 31 25 32 31 33 26 34 30 35 27 36
 SMILES IDX 29 37 28 38
 H PARENT 17 4 13 19 21 29

>  <TORSDO>
F 11

$$$$
