docking/v2/isoforms/avb3/gate/pose_009.pdbqt
 OpenBabel09292623493D

 38 41  0  0  1  0  0  0  0  0999 V2000
   19.0810   42.0240   40.5060 C   0  0  0  0  0  0  0  0  0  0  0  0
   20.4430   41.6990   40.5090 N   0  0  0  0  0  0  0  0  0  0  0  0
   18.2860   41.2260   39.9800 O   0  0  0  0  0  0  0  0  0  0  0  0
   21.1190   42.3430   40.9440 H   0  0  0  0  0  0  0  0  0  0  0  0
   18.5670   43.2730   41.1380 C   0  0  0  0  0  0  0  0  0  0  0  0
   17.1520   43.6270   40.6390 C   0  0  0  0  0  0  0  0  0  0  0  0
   16.4190   44.7200   41.4050 C   0  0  0  0  0  0  0  0  0  0  0  0
   16.1310   44.3030   42.8620 C   0  0  0  0  0  0  0  0  0  0  0  0
   14.6480   43.9510   43.1410 C   0  0  0  0  0  0  0  0  0  0  0  0
   13.8440   43.5350   42.0610 C   0  0  0  0  0  0  0  0  0  0  0  0
   14.1360   44.0210   44.3840 N   0  0  0  0  0  0  0  0  0  0  0  0
   12.4900   43.2040   42.2890 C   0  0  0  0  0  0  0  0  0  0  0  0
   12.8180   43.7050   44.6220 C   0  0  0  0  0  0  0  0  0  0  0  0
   11.9390   43.2820   43.5940 C   0  0  0  0  0  0  0  0  0  0  0  0
   12.3570   43.8110   45.9970 N   0  0  0  0  0  0  0  0  0  0  0  0
   10.5040   42.9310   43.8550 C   0  0  0  0  0  0  0  0  0  0  0  0
   10.9210   44.0340   46.1860 C   0  0  0  0  0  0  0  0  0  0  0  0
    9.9810   43.1630   45.3120 C   0  0  0  0  0  0  0  0  0  0  0  0
   13.0040   43.7330   46.7950 H   0  0  0  0  0  0  0  0  0  0  0  0
   20.9050   40.4880   39.9160 C   0  0  0  0  0  0  0  0  0  0  0  0
   21.2670   39.4550   40.9730 C   0  0  0  0  0  0  0  0  0  0  0  0
   20.2010   38.3650   41.0180 C   0  0  1  0  0  0  0  0  0  0  0  0
   20.8460   37.0570   41.5950 C   0  0  0  0  0  0  0  0  0  0  0  0
   21.7700   37.1300   42.4850 O   0  0  0  0  0  0  0  0  0  0  0  0
   20.4140   35.9320   41.1590 O   0  0  0  0  0  0  0  0  0  0  0  0
   19.0090   38.7340   41.7970 N   0  0  0  0  0  0  0  0  0  0  0  0
   17.7350   38.2490   41.5020 C   0  0  0  0  0  0  0  0  0  0  0  0
   17.4710   37.5280   40.5360 O   0  0  0  0  0  0  0  0  0  0  0  0
   19.1190   39.3780   42.5920 H   0  0  0  0  0  0  0  0  0  0  0  0
   16.5480   38.6610   42.3900 C   0  0  0  0  0  0  0  0  0  0  0  0
   16.6430   39.3610   44.0650 S   0  0  0  0  0  0  0  0  0  0  0  0
   15.2600   38.5990   42.0190 N   0  0  0  0  0  0  0  0  0  0  0  0
   14.8620   39.5120   44.2050 C   0  0  0  0  0  0  0  0  0  0  0  0
   14.3220   39.0470   42.9960 C   0  0  0  0  0  0  0  0  0  0  0  0
   14.0180   39.9750   45.2320 C   0  0  0  0  0  0  0  0  0  0  0  0
   12.9080   39.0500   42.8150 C   0  0  0  0  0  0  0  0  0  0  0  0
   12.6160   39.9750   45.0490 C   0  0  0  0  0  0  0  0  0  0  0  0
   12.0560   39.5100   43.8330 C   0  0  0  0  0  0  0  0  0  0  0  0
  1  2  1  0  0  0  0
  1  5  1  0  0  0  0
  2  4  1  0  0  0  0
  3  1  2  0  0  0  0
  6  5  1  0  0  0  0
  6  7  1  0  0  0  0
  7  8  1  0  0  0  0
  8  9  1  0  0  0  0
  9 11  1  0  0  0  0
 10 12  1  0  0  0  0
 10  9  2  0  0  0  0
 11 13  2  0  0  0  0
 12 14  2  0  0  0  0
 13 15  1  0  0  0  0
 14 16  1  0  0  0  0
 14 13  1  0  0  0  0
 15 17  1  0  0  0  0
 15 19  1  0  0  0  0
 16 18  1  0  0  0  0
 18 17  1  0  0  0  0
 20  2  1  0  0  0  0
 20 21  1  0  0  0  0
 22 21  1  1  0  0  0
 22 23  1  0  0  0  0
 22 26  1  0  0  0  0
 23 24  1  0  0  0  0
 25 23  2  0  0  0  0
 26 29  1  0  0  0  0
 27 26  1  0  0  0  0
 27 30  1  0  0  0  0
 28 27  2  0  0  0  0
 30 31  1  0  0  0  0
 31 33  1  0  0  0  0
 32 30  2  0  0  0  0
 32 34  1  0  0  0  0
 33 35  1  0  0  0  0
 34 33  2  0  0  0  0
 36 34  1  0  0  0  0
 36 38  2  0  0  0  0
 37 35  2  0  0  0  0
 38 37  1  0  0  0  0
M  END
>  <MODEL>
9

>  <REMARK>
 VINA RESULT:    -8.174      3.707      7.112
 INTER + INTRA:         -14.698
 INTER:                 -12.004
 INTRA:                  -2.694
 UNBOUND:                -1.267
 SMILES O=C(CCCCc1ccc2c(n1)NCCC2)NCC[C@H](NC(=O)c1nc2ccccc2s1)C(=O)[O-]
 SMILES IDX 2 1 17 2 1 3 3 5 4 6 5 7 6 8 7 9 8 10 12 11 9 12 11 13 10 14
 SMILES IDX 13 15 16 16 14 17 15 18 18 20 19 21 20 22 33 23 34 24 35 25
 SMILES IDX 21 26 22 27 23 28 24 30 32 31 25 32 31 33 26 34 30 35 27 36
 SMILES IDX 29 37 28 38
 H PARENT 17 4 13 19 21 29

>  <TORSDO>
F 11

$$$$
