docking/v2/isoforms/avb3/gate/pose_011.pdbqt
 OpenBabel09292623493D

 38 41  0  0  1  0  0  0  0  0999 V2000
   19.9840   42.2160   41.8770 C   0  0  0  0  0  0  0  0  0  0  0  0
   21.2880   41.7900   41.6020 N   0  0  0  0  0  0  0  0  0  0  0  0
   19.2140   41.4270   42.4530 O   0  0  0  0  0  0  0  0  0  0  0  0
   21.9430   42.4300   41.1300 H   0  0  0  0  0  0  0  0  0  0  0  0
   19.5110   43.5860   41.5270 C   0  0  0  0  0  0  0  0  0  0  0  0
   18.1490   43.5560   40.8050 C   0  0  0  0  0  0  0  0  0  0  0  0
   17.0580   44.4490   41.3810 C   0  0  0  0  0  0  0  0  0  0  0  0
   15.6600   44.0510   40.8640 C   0  0  0  0  0  0  0  0  0  0  0  0
   14.7140   43.4920   41.9560 C   0  0  0  0  0  0  0  0  0  0  0  0
   15.2610   42.6630   42.9550 C   0  0  0  0  0  0  0  0  0  0  0  0
   13.4030   43.8000   41.9670 N   0  0  0  0  0  0  0  0  0  0  0  0
   14.4210   42.1430   43.9640 C   0  0  0  0  0  0  0  0  0  0  0  0
   12.5710   43.2990   42.9420 C   0  0  0  0  0  0  0  0  0  0  0  0
   13.0360   42.4550   43.9810 C   0  0  0  0  0  0  0  0  0  0  0  0
   11.1710   43.6870   42.8710 N   0  0  0  0  0  0  0  0  0  0  0  0
   12.1300   41.9150   45.0480 C   0  0  0  0  0  0  0  0  0  0  0  0
   10.2110   42.7740   43.4980 C   0  0  0  0  0  0  0  0  0  0  0  0
   10.6050   42.2360   44.8980 C   0  0  0  0  0  0  0  0  0  0  0  0
   10.8700   44.5550   42.4060 H   0  0  0  0  0  0  0  0  0  0  0  0
   21.7210   40.4820   41.9660 C   0  0  0  0  0  0  0  0  0  0  0  0
   22.1810   39.6900   40.7510 C   0  0  0  0  0  0  0  0  0  0  0  0
   21.0830   38.7250   40.3150 C   0  0  1  0  0  0  0  0  0  0  0  0
   21.6950   37.2860   40.2010 C   0  0  0  0  0  0  0  0  0  0  0  0
   21.5310   36.4370   41.1510 O   0  0  0  0  0  0  0  0  0  0  0  0
   22.3470   36.9940   39.1370 O   0  0  0  0  0  0  0  0  0  0  0  0
   19.9130   38.7140   41.2080 N   0  0  0  0  0  0  0  0  0  0  0  0
   18.6490   38.2980   40.7910 C   0  0  0  0  0  0  0  0  0  0  0  0
   18.3710   37.9670   39.6360 O   0  0  0  0  0  0  0  0  0  0  0  0
   20.0340   39.0270   42.1810 H   0  0  0  0  0  0  0  0  0  0  0  0
   17.4890   38.2880   41.8020 C   0  0  0  0  0  0  0  0  0  0  0  0
   17.6110   37.9510   43.5840 S   0  0  0  0  0  0  0  0  0  0  0  0
   16.2130   38.5760   41.5020 N   0  0  0  0  0  0  0  0  0  0  0  0
   15.8540   38.1930   43.8460 C   0  0  0  0  0  0  0  0  0  0  0  0
   15.3020   38.5200   42.5980 C   0  0  0  0  0  0  0  0  0  0  0  0
   15.0360   38.1120   44.9890 C   0  0  0  0  0  0  0  0  0  0  0  0
   13.9030   38.7730   42.4970 C   0  0  0  0  0  0  0  0  0  0  0  0
   13.6480   38.3620   44.8840 C   0  0  0  0  0  0  0  0  0  0  0  0
   13.0770   38.6950   43.6310 C   0  0  0  0  0  0  0  0  0  0  0  0
  1  3  2  0  0  0  0
  2  1  1  0  0  0  0
  2 20  1  0  0  0  0
  4  2  1  0  0  0  0
  5  1  1  0  0  0  0
  6  7  1  0  0  0  0
  6  5  1  0  0  0  0
  8  7  1  0  0  0  0
  8  9  1  0  0  0  0
  9 11  2  0  0  0  0
  9 10  1  0  0  0  0
 10 12  2  0  0  0  0
 11 13  1  0  0  0  0
 12 14  1  0  0  0  0
 13 14  2  0  0  0  0
 14 16  1  0  0  0  0
 15 13  1  0  0  0  0
 15 17  1  0  0  0  0
 17 18  1  0  0  0  0
 18 16  1  0  0  0  0
 19 15  1  0  0  0  0
 21 20  1  0  0  0  0
 22 21  1  1  0  0  0
 22 26  1  0  0  0  0
 23 22  1  0  0  0  0
 23 24  1  0  0  0  0
 25 23  2  0  0  0  0
 26 29  1  0  0  0  0
 27 26  1  0  0  0  0
 27 30  1  0  0  0  0
 28 27  2  0  0  0  0
 30 31  1  0  0  0  0
 31 33  1  0  0  0  0
 32 30  2  0  0  0  0
 32 34  1  0  0  0  0
 33 35  1  0  0  0  0
 34 33  2  0  0  0  0
 36 34  1  0  0  0  0
 36 38  2  0  0  0  0
 37 35  2  0  0  0  0
 38 37  1  0  0  0  0
M  END
>  <MODEL>
11

>  <REMARK>
 VINA RESULT:    -8.126      3.407      6.640
 INTER + INTRA:         -14.619
 INTER:                 -11.932
 INTRA:                  -2.687
 UNBOUND:                -1.267
 SMILES O=C(CCCCc1ccc2c(n1)NCCC2)NCC[C@H](NC(=O)c1nc2ccccc2s1)C(=O)[O-]
 SMILES IDX 2 1 17 2 1 3 3 5 4 6 5 7 6 8 7 9 8 10 12 11 9 12 11 13 10 14
 SMILES IDX 13 15 16 16 14 17 15 18 18 20 19 21 20 22 33 23 34 24 35 25
 SMILES IDX 21 26 22 27 23 28 24 30 32 31 25 32 31 33 26 34 30 35 27 36
 SMILES IDX 29 37 28 38
 H PARENT 17 4 13 19 21 29

>  <TORSDO>
F 11

$$$$
