docking/v2/isoforms/avb3/gate/pose_007.pdbqt
 OpenBabel09292623493D

 38 41  0  0  1  0  0  0  0  0999 V2000
   25.3300   39.5250   41.9420 C   0  0  0  0  0  0  0  0  0  0  0  0
   24.3860   38.6520   41.3890 N   0  0  0  0  0  0  0  0  0  0  0  0
   25.1870   40.7460   41.7540 O   0  0  0  0  0  0  0  0  0  0  0  0
   24.4830   37.6370   41.5360 H   0  0  0  0  0  0  0  0  0  0  0  0
   26.4730   39.0320   42.7630 C   0  0  0  0  0  0  0  0  0  0  0  0
   27.7210   38.7530   41.9030 C   0  0  0  0  0  0  0  0  0  0  0  0
   29.0470   38.6550   42.6450 C   0  0  0  0  0  0  0  0  0  0  0  0
   28.8780   38.9210   44.1560 C   0  0  0  0  0  0  0  0  0  0  0  0
   30.1620   38.6860   44.9900 C   0  0  0  0  0  0  0  0  0  0  0  0
   30.7650   39.7940   45.6170 C   0  0  0  0  0  0  0  0  0  0  0  0
   30.6850   37.4530   45.1330 N   0  0  0  0  0  0  0  0  0  0  0  0
   31.9340   39.6060   46.3870 C   0  0  0  0  0  0  0  0  0  0  0  0
   31.8260   37.2540   45.8760 C   0  0  0  0  0  0  0  0  0  0  0  0
   32.4990   38.3130   46.5370 C   0  0  0  0  0  0  0  0  0  0  0  0
   32.3160   35.8880   45.9720 N   0  0  0  0  0  0  0  0  0  0  0  0
   33.7370   38.0940   47.3540 C   0  0  0  0  0  0  0  0  0  0  0  0
   33.7460   35.7290   46.2460 C   0  0  0  0  0  0  0  0  0  0  0  0
   34.3280   36.6450   47.3540 C   0  0  0  0  0  0  0  0  0  0  0  0
   31.6920   35.0770   45.8540 H   0  0  0  0  0  0  0  0  0  0  0  0
   23.2910   39.1510   40.6240 C   0  0  0  0  0  0  0  0  0  0  0  0
   22.5940   38.0370   39.8580 C   0  0  0  0  0  0  0  0  0  0  0  0
   21.1460   37.9160   40.3210 C   0  0  1  0  0  0  0  0  0  0  0  0
   21.0750   36.8580   41.4760 C   0  0  0  0  0  0  0  0  0  0  0  0
   21.6720   37.0780   42.5920 O   0  0  0  0  0  0  0  0  0  0  0  0
   20.4020   35.7870   41.2680 O   0  0  0  0  0  0  0  0  0  0  0  0
   20.5550   39.1910   40.7590 N   0  0  0  0  0  0  0  0  0  0  0  0
   19.8360   40.0230   39.9030 C   0  0  0  0  0  0  0  0  0  0  0  0
   19.6820   39.8140   38.6960 O   0  0  0  0  0  0  0  0  0  0  0  0
   20.6780   39.4800   41.7400 H   0  0  0  0  0  0  0  0  0  0  0  0
   19.2240   41.3230   40.4530 C   0  0  0  0  0  0  0  0  0  0  0  0
   20.1180   42.6750   41.2770 S   0  0  0  0  0  0  0  0  0  0  0  0
   17.9280   41.6570   40.3560 N   0  0  0  0  0  0  0  0  0  0  0  0
   18.6320   43.6540   41.4910 C   0  0  0  0  0  0  0  0  0  0  0  0
   17.5800   42.9190   40.9240 C   0  0  0  0  0  0  0  0  0  0  0  0
   18.3900   44.9110   42.0770 C   0  0  0  0  0  0  0  0  0  0  0  0
   16.2600   43.4570   40.9450 C   0  0  0  0  0  0  0  0  0  0  0  0
   17.0800   45.4410   42.0970 C   0  0  0  0  0  0  0  0  0  0  0  0
   16.0070   44.7110   41.5280 C   0  0  0  0  0  0  0  0  0  0  0  0
  1  5  1  0  0  0  0
  2  4  1  0  0  0  0
  2  1  1  0  0  0  0
  3  1  2  0  0  0  0
  6  7  1  0  0  0  0
  6  5  1  0  0  0  0
  7  8  1  0  0  0  0
  8  9  1  0  0  0  0
  9 11  2  0  0  0  0
  9 10  1  0  0  0  0
 10 12  2  0  0  0  0
 11 13  1  0  0  0  0
 12 14  1  0  0  0  0
 13 15  1  0  0  0  0
 13 14  2  0  0  0  0
 14 16  1  0  0  0  0
 15 17  1  0  0  0  0
 17 18  1  0  0  0  0
 18 16  1  0  0  0  0
 19 15  1  0  0  0  0
 20  2  1  0  0  0  0
 21 20  1  0  0  0  0
 22 21  1  1  0  0  0
 22 26  1  0  0  0  0
 22 23  1  0  0  0  0
 23 24  1  0  0  0  0
 25 23  2  0  0  0  0
 26 29  1  0  0  0  0
 27 30  1  0  0  0  0
 27 26  1  0  0  0  0
 28 27  2  0  0  0  0
 30 31  1  0  0  0  0
 31 33  1  0  0  0  0
 32 30  2  0  0  0  0
 32 34  1  0  0  0  0
 33 35  1  0  0  0  0
 34 36  1  0  0  0  0
 34 33  2  0  0  0  0
 35 37  2  0  0  0  0
 36 38  2  0  0  0  0
 38 37  1  0  0  0  0
M  END
>  <MODEL>
7

>  <REMARK>
 VINA RESULT:    -8.251      3.380     12.345
 INTER + INTRA:         -14.824
 INTER:                 -13.974
 INTRA:                  -0.849
 UNBOUND:                -1.267
 SMILES O=C(CCCCc1ccc2c(n1)NCCC2)NCC[C@H](NC(=O)c1nc2ccccc2s1)C(=O)[O-]
 SMILES IDX 2 1 17 2 1 3 3 5 4 6 5 7 6 8 7 9 8 10 12 11 9 12 11 13 10 14
 SMILES IDX 13 15 16 16 14 17 15 18 18 20 19 21 20 22 33 23 34 24 35 25
 SMILES IDX 21 26 22 27 23 28 24 30 32 31 25 32 31 33 26 34 30 35 27 36
 SMILES IDX 29 37 28 38
 H PARENT 17 4 13 19 21 29

>  <TORSDO>
F 11

$$$$
