docking/v2/isoforms/avb3/gate/pose_014.pdbqt
 OpenBabel09292623493D

 38 41  0  0  1  0  0  0  0  0999 V2000
   22.7350   42.3100   40.1900 C   0  0  0  0  0  0  0  0  0  0  0  0
   21.4960   41.6600   40.1600 N   0  0  0  0  0  0  0  0  0  0  0  0
   23.7660   41.6140   40.2120 O   0  0  0  0  0  0  0  0  0  0  0  0
   20.6300   42.2170   40.1360 H   0  0  0  0  0  0  0  0  0  0  0  0
   22.8470   43.7960   40.1660 C   0  0  0  0  0  0  0  0  0  0  0  0
   23.0850   44.3770   41.5740 C   0  0  0  0  0  0  0  0  0  0  0  0
   24.4410   45.0270   41.8170 C   0  0  0  0  0  0  0  0  0  0  0  0
   24.3740   46.5610   41.6760 C   0  0  0  0  0  0  0  0  0  0  0  0
   24.7150   47.0850   40.2590 C   0  0  0  0  0  0  0  0  0  0  0  0
   23.8400   48.0140   39.6610 C   0  0  0  0  0  0  0  0  0  0  0  0
   25.8260   46.6820   39.6150 N   0  0  0  0  0  0  0  0  0  0  0  0
   24.1300   48.5110   38.3710 C   0  0  0  0  0  0  0  0  0  0  0  0
   26.1210   47.1540   38.3560 C   0  0  0  0  0  0  0  0  0  0  0  0
   25.2950   48.0860   37.6790 C   0  0  0  0  0  0  0  0  0  0  0  0
   27.3430   46.6610   37.7410 N   0  0  0  0  0  0  0  0  0  0  0  0
   25.6200   48.6060   36.3110 C   0  0  0  0  0  0  0  0  0  0  0  0
   27.3880   46.6830   36.2770 C   0  0  0  0  0  0  0  0  0  0  0  0
   26.8690   47.9810   35.6040 C   0  0  0  0  0  0  0  0  0  0  0  0
   28.1330   46.3140   38.3030 H   0  0  0  0  0  0  0  0  0  0  0  0
   21.4180   40.2370   40.1630 C   0  0  0  0  0  0  0  0  0  0  0  0
   20.3580   39.7400   41.1360 C   0  0  0  0  0  0  0  0  0  0  0  0
   20.8550   38.4870   41.8490 C   0  0  1  0  0  0  0  0  0  0  0  0
   20.4260   37.2310   41.0150 C   0  0  0  0  0  0  0  0  0  0  0  0
   19.6170   37.3580   40.0250 O   0  0  0  0  0  0  0  0  0  0  0  0
   20.9150   36.0940   41.3480 O   0  0  0  0  0  0  0  0  0  0  0  0
   22.3080   38.4740   42.0830 N   0  0  0  0  0  0  0  0  0  0  0  0
   22.9320   39.3120   43.0070 C   0  0  0  0  0  0  0  0  0  0  0  0
   22.3500   40.1800   43.6620 O   0  0  0  0  0  0  0  0  0  0  0  0
   22.8890   37.8190   41.5400 H   0  0  0  0  0  0  0  0  0  0  0  0
   24.4530   39.2080   43.2100 C   0  0  0  0  0  0  0  0  0  0  0  0
   25.3410   39.3090   44.7930 S   0  0  0  0  0  0  0  0  0  0  0  0
   25.3400   38.9810   42.2290 N   0  0  0  0  0  0  0  0  0  0  0  0
   26.9400   39.0620   44.0200 C   0  0  0  0  0  0  0  0  0  0  0  0
   26.7030   38.9090   42.6460 C   0  0  0  0  0  0  0  0  0  0  0  0
   28.2510   39.0070   44.5290 C   0  0  0  0  0  0  0  0  0  0  0  0
   27.8050   38.6920   41.7670 C   0  0  0  0  0  0  0  0  0  0  0  0
   29.3410   38.7940   43.6540 C   0  0  0  0  0  0  0  0  0  0  0  0
   29.1170   38.6350   42.2640 C   0  0  0  0  0  0  0  0  0  0  0  0
  1  3  2  0  0  0  0
  2 20  1  0  0  0  0
  2  1  1  0  0  0  0
  4  2  1  0  0  0  0
  5  1  1  0  0  0  0
  5  6  1  0  0  0  0
  6  7  1  0  0  0  0
  8  7  1  0  0  0  0
  9  8  1  0  0  0  0
 10  9  1  0  0  0  0
 11  9  2  0  0  0  0
 12 10  2  0  0  0  0
 13 11  1  0  0  0  0
 14 13  2  0  0  0  0
 14 12  1  0  0  0  0
 15 19  1  0  0  0  0
 15 13  1  0  0  0  0
 16 14  1  0  0  0  0
 17 15  1  0  0  0  0
 18 17  1  0  0  0  0
 18 16  1  0  0  0  0
 20 21  1  0  0  0  0
 22 21  1  6  0  0  0
 22 26  1  0  0  0  0
 23 25  1  0  0  0  0
 23 22  1  0  0  0  0
 24 23  2  0  0  0  0
 26 27  1  0  0  0  0
 27 30  1  0  0  0  0
 27 28  2  0  0  0  0
 29 26  1  0  0  0  0
 30 31  1  0  0  0  0
 32 34  1  0  0  0  0
 32 30  2  0  0  0  0
 33 35  1  0  0  0  0
 33 31  1  0  0  0  0
 34 33  2  0  0  0  0
 36 38  2  0  0  0  0
 36 34  1  0  0  0  0
 37 35  2  0  0  0  0
 38 37  1  0  0  0  0
M  END
>  <MODEL>
14

>  <REMARK>
 VINA RESULT:    -7.985      5.378      8.513
 INTER + INTRA:         -14.387
 INTER:                 -13.303
 INTRA:                  -1.084
 UNBOUND:                -1.267
 SMILES O=C(CCCCc1ccc2c(n1)NCCC2)NCC[C@H](NC(=O)c1nc2ccccc2s1)C(=O)[O-]
 SMILES IDX 2 1 17 2 1 3 3 5 4 6 5 7 6 8 7 9 8 10 12 11 9 12 11 13 10 14
 SMILES IDX 13 15 16 16 14 17 15 18 18 20 19 21 20 22 33 23 34 24 35 25
 SMILES IDX 21 26 22 27 23 28 24 30 32 31 25 32 31 33 26 34 30 35 27 36
 SMILES IDX 29 37 28 38
 H PARENT 17 4 13 19 21 29

>  <TORSDO>
F 11

$$$$
