docking/v2/isoforms/avb3/gate/pose_013.pdbqt
 OpenBabel09292623493D

 38 41  0  0  1  0  0  0  0  0999 V2000
   18.8260   43.0250   40.6880 C   0  0  0  0  0  0  0  0  0  0  0  0
   19.1560   41.6990   40.3870 N   0  0  0  0  0  0  0  0  0  0  0  0
   19.7330   43.7870   41.0700 O   0  0  0  0  0  0  0  0  0  0  0  0
   18.4210   41.0530   40.0640 H   0  0  0  0  0  0  0  0  0  0  0  0
   17.4380   43.5470   40.5370 C   0  0  0  0  0  0  0  0  0  0  0  0
   17.0710   44.5360   41.6620 C   0  0  0  0  0  0  0  0  0  0  0  0
   16.3670   43.9480   42.8770 C   0  0  0  0  0  0  0  0  0  0  0  0
   15.1160   43.1390   42.4780 C   0  0  0  0  0  0  0  0  0  0  0  0
   15.1800   41.6390   42.8610 C   0  0  0  0  0  0  0  0  0  0  0  0
   14.0360   41.0440   43.4300 C   0  0  0  0  0  0  0  0  0  0  0  0
   16.2910   40.9100   42.6450 N   0  0  0  0  0  0  0  0  0  0  0  0
   14.0670   39.6780   43.7850 C   0  0  0  0  0  0  0  0  0  0  0  0
   16.3380   39.5790   42.9890 C   0  0  0  0  0  0  0  0  0  0  0  0
   15.2360   38.9020   43.5690 C   0  0  0  0  0  0  0  0  0  0  0  0
   17.5820   38.8750   42.7170 N   0  0  0  0  0  0  0  0  0  0  0  0
   15.2850   37.4490   43.9370 C   0  0  0  0  0  0  0  0  0  0  0  0
   17.8550   37.6960   43.5420 C   0  0  0  0  0  0  0  0  0  0  0  0
   16.6620   36.7280   43.7550 C   0  0  0  0  0  0  0  0  0  0  0  0
   18.2350   39.1880   41.9840 H   0  0  0  0  0  0  0  0  0  0  0  0
   20.4960   41.2320   40.5200 C   0  0  0  0  0  0  0  0  0  0  0  0
   20.6260   39.7820   40.0770 C   0  0  0  0  0  0  0  0  0  0  0  0
   20.9860   38.9040   41.2720 C   0  0  1  0  0  0  0  0  0  0  0  0
   20.4710   37.4490   40.9980 C   0  0  0  0  0  0  0  0  0  0  0  0
   21.1960   36.4370   41.3140 O   0  0  0  0  0  0  0  0  0  0  0  0
   19.3130   37.3130   40.4660 O   0  0  0  0  0  0  0  0  0  0  0  0
   22.4240   38.8880   41.5830 N   0  0  0  0  0  0  0  0  0  0  0  0
   22.9280   39.2200   42.8400 C   0  0  0  0  0  0  0  0  0  0  0  0
   22.2390   39.6200   43.7830 O   0  0  0  0  0  0  0  0  0  0  0  0
   23.0860   38.6200   40.8420 H   0  0  0  0  0  0  0  0  0  0  0  0
   24.4440   39.1440   43.0880 C   0  0  0  0  0  0  0  0  0  0  0  0
   25.2840   39.2540   44.6970 S   0  0  0  0  0  0  0  0  0  0  0  0
   25.3640   38.9380   42.1330 N   0  0  0  0  0  0  0  0  0  0  0  0
   26.9080   39.0410   43.9710 C   0  0  0  0  0  0  0  0  0  0  0  0
   26.7150   38.8890   42.5890 C   0  0  0  0  0  0  0  0  0  0  0  0
   28.2050   39.0070   44.5180 C   0  0  0  0  0  0  0  0  0  0  0  0
   27.8460   38.6970   41.7420 C   0  0  0  0  0  0  0  0  0  0  0  0
   29.3240   38.8180   43.6740 C   0  0  0  0  0  0  0  0  0  0  0  0
   29.1440   38.6620   42.2770 C   0  0  0  0  0  0  0  0  0  0  0  0
  1  3  2  0  0  0  0
  2 20  1  0  0  0  0
  2  1  1  0  0  0  0
  4  2  1  0  0  0  0
  5  1  1  0  0  0  0
  5  6  1  0  0  0  0
  6  7  1  0  0  0  0
  8  9  1  0  0  0  0
  8  7  1  0  0  0  0
  9 10  1  0  0  0  0
 10 12  2  0  0  0  0
 11  9  2  0  0  0  0
 11 13  1  0  0  0  0
 13 14  2  0  0  0  0
 14 12  1  0  0  0  0
 14 16  1  0  0  0  0
 15 13  1  0  0  0  0
 15 17  1  0  0  0  0
 17 18  1  0  0  0  0
 18 16  1  0  0  0  0
 19 15  1  0  0  0  0
 21 20  1  0  0  0  0
 22 21  1  6  0  0  0
 22 26  1  0  0  0  0
 23 22  1  0  0  0  0
 23 24  1  0  0  0  0
 25 23  2  0  0  0  0
 26 27  1  0  0  0  0
 27 30  1  0  0  0  0
 27 28  2  0  0  0  0
 29 26  1  0  0  0  0
 30 31  1  0  0  0  0
 32 34  1  0  0  0  0
 32 30  2  0  0  0  0
 33 35  1  0  0  0  0
 33 31  1  0  0  0  0
 34 33  2  0  0  0  0
 36 38  2  0  0  0  0
 36 34  1  0  0  0  0
 37 35  2  0  0  0  0
 38 37  1  0  0  0  0
M  END
>  <MODEL>
13

>  <REMARK>
 VINA RESULT:    -8.065      1.480      1.992
 INTER + INTRA:         -14.518
 INTER:                 -12.775
 INTRA:                  -1.743
 UNBOUND:                -1.267
 SMILES O=C(CCCCc1ccc2c(n1)NCCC2)NCC[C@H](NC(=O)c1nc2ccccc2s1)C(=O)[O-]
 SMILES IDX 2 1 17 2 1 3 3 5 4 6 5 7 6 8 7 9 8 10 12 11 9 12 11 13 10 14
 SMILES IDX 13 15 16 16 14 17 15 18 18 20 19 21 20 22 33 23 34 24 35 25
 SMILES IDX 21 26 22 27 23 28 24 30 32 31 25 32 31 33 26 34 30 35 27 36
 SMILES IDX 29 37 28 38
 H PARENT 17 4 13 19 21 29

>  <TORSDO>
F 11

$$$$
