docking/v2/isoforms/avb3/gate/pose_005.pdbqt
 OpenBabel09292623493D

 38 41  0  0  1  0  0  0  0  0999 V2000
   18.3160   41.0530   41.1740 C   0  0  0  0  0  0  0  0  0  0  0  0
   19.1840   40.7630   40.1150 N   0  0  0  0  0  0  0  0  0  0  0  0
   17.5220   40.1700   41.5440 O   0  0  0  0  0  0  0  0  0  0  0  0
   19.8540   41.4780   39.7960 H   0  0  0  0  0  0  0  0  0  0  0  0
   18.3400   42.3680   41.8770 C   0  0  0  0  0  0  0  0  0  0  0  0
   17.9450   43.5270   40.9410 C   0  0  0  0  0  0  0  0  0  0  0  0
   16.8530   44.4600   41.4450 C   0  0  0  0  0  0  0  0  0  0  0  0
   15.4650   44.0620   40.9020 C   0  0  0  0  0  0  0  0  0  0  0  0
   14.5370   43.4010   41.9510 C   0  0  0  0  0  0  0  0  0  0  0  0
   15.0940   42.4550   42.8350 C   0  0  0  0  0  0  0  0  0  0  0  0
   13.2340   43.7280   42.0360 N   0  0  0  0  0  0  0  0  0  0  0  0
   14.2720   41.8400   43.8050 C   0  0  0  0  0  0  0  0  0  0  0  0
   12.4190   43.1360   42.9730 C   0  0  0  0  0  0  0  0  0  0  0  0
   12.8950   42.1720   43.8970 C   0  0  0  0  0  0  0  0  0  0  0  0
   11.0250   43.5540   42.9870 N   0  0  0  0  0  0  0  0  0  0  0  0
   12.0070   41.5320   44.9230 C   0  0  0  0  0  0  0  0  0  0  0  0
   10.0650   42.5940   43.5370 C   0  0  0  0  0  0  0  0  0  0  0  0
   10.4860   41.8950   44.8550 C   0  0  0  0  0  0  0  0  0  0  0  0
   10.7310   44.4750   42.6310 H   0  0  0  0  0  0  0  0  0  0  0  0
   19.1540   39.4910   39.4740 C   0  0  0  0  0  0  0  0  0  0  0  0
   20.4750   38.7530   39.6370 C   0  0  0  0  0  0  0  0  0  0  0  0
   20.6740   38.3640   41.0990 C   0  0  1  0  0  0  0  0  0  0  0  0
   20.0050   36.9670   41.3410 C   0  0  0  0  0  0  0  0  0  0  0  0
   18.7660   36.8920   41.6740 O   0  0  0  0  0  0  0  0  0  0  0  0
   20.7280   35.9200   41.1860 O   0  0  0  0  0  0  0  0  0  0  0  0
   22.0830   38.3360   41.5180 N   0  0  0  0  0  0  0  0  0  0  0  0
   22.7250   39.4370   42.0850 C   0  0  0  0  0  0  0  0  0  0  0  0
   22.2050   40.5470   42.2280 O   0  0  0  0  0  0  0  0  0  0  0  0
   22.6190   37.4660   41.3880 H   0  0  0  0  0  0  0  0  0  0  0  0
   24.1930   39.3080   42.5260 C   0  0  0  0  0  0  0  0  0  0  0  0
   24.8280   39.4440   44.2240 S   0  0  0  0  0  0  0  0  0  0  0  0
   25.2150   39.0290   41.7020 N   0  0  0  0  0  0  0  0  0  0  0  0
   26.5200   39.1380   43.7170 C   0  0  0  0  0  0  0  0  0  0  0  0
   26.4950   38.9430   42.3270 C   0  0  0  0  0  0  0  0  0  0  0  0
   27.7350   39.0720   44.4250 C   0  0  0  0  0  0  0  0  0  0  0  0
   27.7130   38.6740   41.6370 C   0  0  0  0  0  0  0  0  0  0  0  0
   28.9410   38.8070   43.7370 C   0  0  0  0  0  0  0  0  0  0  0  0
   28.9310   38.6060   42.3340 C   0  0  0  0  0  0  0  0  0  0  0  0
  1  3  2  0  0  0  0
  1  5  1  0  0  0  0
  2  1  1  0  0  0  0
  4  2  1  0  0  0  0
  6  7  1  0  0  0  0
  6  5  1  0  0  0  0
  8  7  1  0  0  0  0
  8  9  1  0  0  0  0
  9 11  2  0  0  0  0
  9 10  1  0  0  0  0
 10 12  2  0  0  0  0
 11 13  1  0  0  0  0
 12 14  1  0  0  0  0
 13 15  1  0  0  0  0
 13 14  2  0  0  0  0
 14 16  1  0  0  0  0
 15 17  1  0  0  0  0
 17 18  1  0  0  0  0
 18 16  1  0  0  0  0
 19 15  1  0  0  0  0
 20 21  1  0  0  0  0
 20  2  1  0  0  0  0
 22 21  1  6  0  0  0
 22 23  1  0  0  0  0
 22 26  1  0  0  0  0
 23 24  1  0  0  0  0
 25 23  2  0  0  0  0
 26 27  1  0  0  0  0
 27 28  2  0  0  0  0
 27 30  1  0  0  0  0
 29 26  1  0  0  0  0
 30 31  1  0  0  0  0
 32 34  1  0  0  0  0
 32 30  2  0  0  0  0
 33 31  1  0  0  0  0
 33 35  1  0  0  0  0
 34 33  2  0  0  0  0
 36 34  1  0  0  0  0
 36 38  2  0  0  0  0
 37 35  2  0  0  0  0
 38 37  1  0  0  0  0
M  END
>  <MODEL>
5

>  <REMARK>
 VINA RESULT:    -8.372      1.557      2.057
 INTER + INTRA:         -15.024
 INTER:                 -13.900
 INTRA:                  -1.124
 UNBOUND:                -1.267
 SMILES O=C(CCCCc1ccc2c(n1)NCCC2)NCC[C@H](NC(=O)c1nc2ccccc2s1)C(=O)[O-]
 SMILES IDX 2 1 17 2 1 3 3 5 4 6 5 7 6 8 7 9 8 10 12 11 9 12 11 13 10 14
 SMILES IDX 13 15 16 16 14 17 15 18 18 20 19 21 20 22 33 23 34 24 35 25
 SMILES IDX 21 26 22 27 23 28 24 30 32 31 25 32 31 33 26 34 30 35 27 36
 SMILES IDX 29 37 28 38
 H PARENT 17 4 13 19 21 29

>  <TORSDO>
F 11

$$$$
