docking/v2/isoforms/avb3/gate/pose_004.pdbqt
 OpenBabel09292623493D

 38 41  0  0  1  0  0  0  0  0999 V2000
   19.0730   41.7950   40.7290 C   0  0  0  0  0  0  0  0  0  0  0  0
   19.8160   40.9900   39.8590 N   0  0  0  0  0  0  0  0  0  0  0  0
   18.0570   41.3090   41.2590 O   0  0  0  0  0  0  0  0  0  0  0  0
   20.6640   41.3700   39.4130 H   0  0  0  0  0  0  0  0  0  0  0  0
   19.4800   43.1920   41.0540 C   0  0  0  0  0  0  0  0  0  0  0  0
   20.9880   43.4180   40.8290 C   0  0  0  0  0  0  0  0  0  0  0  0
   21.8650   43.4240   42.0740 C   0  0  0  0  0  0  0  0  0  0  0  0
   23.3580   43.5800   41.7210 C   0  0  0  0  0  0  0  0  0  0  0  0
   23.7030   44.9000   40.9870 C   0  0  0  0  0  0  0  0  0  0  0  0
   23.7800   46.0860   41.7440 C   0  0  0  0  0  0  0  0  0  0  0  0
   23.9430   44.9200   39.6620 N   0  0  0  0  0  0  0  0  0  0  0  0
   24.0970   47.3020   41.1000 C   0  0  0  0  0  0  0  0  0  0  0  0
   24.2490   46.0970   39.0200 C   0  0  0  0  0  0  0  0  0  0  0  0
   24.3430   47.3360   39.7030 C   0  0  0  0  0  0  0  0  0  0  0  0
   24.4910   46.0190   37.5880 N   0  0  0  0  0  0  0  0  0  0  0  0
   24.6850   48.6180   39.0030 C   0  0  0  0  0  0  0  0  0  0  0  0
   24.2610   47.2460   36.8220 C   0  0  0  0  0  0  0  0  0  0  0  0
   24.8240   48.5490   37.4460 C   0  0  0  0  0  0  0  0  0  0  0  0
   24.8080   45.1480   37.1370 H   0  0  0  0  0  0  0  0  0  0  0  0
   19.4160   39.6510   39.5810 C   0  0  0  0  0  0  0  0  0  0  0  0
   20.5400   38.6640   39.8610 C   0  0  0  0  0  0  0  0  0  0  0  0
   20.6110   38.3690   41.3550 C   0  0  1  0  0  0  0  0  0  0  0  0
   19.8940   37.0020   41.6310 C   0  0  0  0  0  0  0  0  0  0  0  0
   18.7890   36.9730   42.2860 O   0  0  0  0  0  0  0  0  0  0  0  0
   20.4390   35.9350   41.1750 O   0  0  0  0  0  0  0  0  0  0  0  0
   21.9810   38.3440   41.8910 N   0  0  0  0  0  0  0  0  0  0  0  0
   22.9350   39.3100   41.5700 C   0  0  0  0  0  0  0  0  0  0  0  0
   22.7520   40.2280   40.7670 O   0  0  0  0  0  0  0  0  0  0  0  0
   22.2470   37.5810   42.5290 H   0  0  0  0  0  0  0  0  0  0  0  0
   24.3350   39.2250   42.2020 C   0  0  0  0  0  0  0  0  0  0  0  0
   24.7300   39.3310   43.9740 S   0  0  0  0  0  0  0  0  0  0  0  0
   25.4690   39.0110   41.5170 N   0  0  0  0  0  0  0  0  0  0  0  0
   26.4860   39.1070   43.6920 C   0  0  0  0  0  0  0  0  0  0  0  0
   26.6560   38.9550   42.3070 C   0  0  0  0  0  0  0  0  0  0  0  0
   27.5970   39.0660   44.5570 C   0  0  0  0  0  0  0  0  0  0  0  0
   27.9660   38.7550   41.7820 C   0  0  0  0  0  0  0  0  0  0  0  0
   28.8940   38.8700   44.0310 C   0  0  0  0  0  0  0  0  0  0  0  0
   29.0810   38.7120   42.6350 C   0  0  0  0  0  0  0  0  0  0  0  0
  1  5  1  0  0  0  0
  1  3  2  0  0  0  0
  2  1  1  0  0  0  0
  4  2  1  0  0  0  0
  6  5  1  0  0  0  0
  6  7  1  0  0  0  0
  8  7  1  0  0  0  0
  9  8  1  0  0  0  0
  9 10  1  0  0  0  0
 11  9  2  0  0  0  0
 12 10  2  0  0  0  0
 13 11  1  0  0  0  0
 13 14  2  0  0  0  0
 14 12  1  0  0  0  0
 15 13  1  0  0  0  0
 16 14  1  0  0  0  0
 17 18  1  0  0  0  0
 17 15  1  0  0  0  0
 18 16  1  0  0  0  0
 19 15  1  0  0  0  0
 20  2  1  0  0  0  0
 20 21  1  0  0  0  0
 22 21  1  6  0  0  0
 22 23  1  0  0  0  0
 22 26  1  0  0  0  0
 23 24  1  0  0  0  0
 25 23  2  0  0  0  0
 26 29  1  0  0  0  0
 27 26  1  0  0  0  0
 27 30  1  0  0  0  0
 28 27  2  0  0  0  0
 30 31  1  0  0  0  0
 32 30  2  0  0  0  0
 32 34  1  0  0  0  0
 33 31  1  0  0  0  0
 33 35  1  0  0  0  0
 34 33  2  0  0  0  0
 36 34  1  0  0  0  0
 36 38  2  0  0  0  0
 37 35  2  0  0  0  0
 38 37  1  0  0  0  0
M  END
>  <MODEL>
4

>  <REMARK>
 VINA RESULT:    -8.474      4.245      7.247
 INTER + INTRA:         -15.190
 INTER:                 -13.976
 INTRA:                  -1.215
 UNBOUND:                -1.267
 SMILES O=C(CCCCc1ccc2c(n1)NCCC2)NCC[C@H](NC(=O)c1nc2ccccc2s1)C(=O)[O-]
 SMILES IDX 2 1 17 2 1 3 3 5 4 6 5 7 6 8 7 9 8 10 12 11 9 12 11 13 10 14
 SMILES IDX 13 15 16 16 14 17 15 18 18 20 19 21 20 22 33 23 34 24 35 25
 SMILES IDX 21 26 22 27 23 28 24 30 32 31 25 32 31 33 26 34 30 35 27 36
 SMILES IDX 29 37 28 38
 H PARENT 17 4 13 19 21 29

>  <TORSDO>
F 11

$$$$
