docking/v2/isoforms/avb3/gate/pose_012.pdbqt
 OpenBabel09292623493D

 38 41  0  0  1  0  0  0  0  0999 V2000
   18.3570   41.9580   40.9100 C   0  0  0  0  0  0  0  0  0  0  0  0
   19.6630   41.5740   40.5850 N   0  0  0  0  0  0  0  0  0  0  0  0
   17.7590   41.3250   41.7980 O   0  0  0  0  0  0  0  0  0  0  0  0
   20.1780   42.0880   39.8560 H   0  0  0  0  0  0  0  0  0  0  0  0
   17.6860   43.1120   40.2460 C   0  0  0  0  0  0  0  0  0  0  0  0
   17.4300   44.2710   41.2300 C   0  0  0  0  0  0  0  0  0  0  0  0
   16.0090   44.8140   41.2820 C   0  0  0  0  0  0  0  0  0  0  0  0
   14.9620   43.6830   41.2100 C   0  0  0  0  0  0  0  0  0  0  0  0
   14.0300   43.5990   42.4450 C   0  0  0  0  0  0  0  0  0  0  0  0
   14.6190   43.5120   43.7220 C   0  0  0  0  0  0  0  0  0  0  0  0
   12.6910   43.6260   42.3120 N   0  0  0  0  0  0  0  0  0  0  0  0
   13.7930   43.4380   44.8650 C   0  0  0  0  0  0  0  0  0  0  0  0
   11.8720   43.5520   43.4150 C   0  0  0  0  0  0  0  0  0  0  0  0
   12.3790   43.4580   44.7360 C   0  0  0  0  0  0  0  0  0  0  0  0
   10.4380   43.5880   43.1710 N   0  0  0  0  0  0  0  0  0  0  0  0
   11.4860   43.3840   45.9380 C   0  0  0  0  0  0  0  0  0  0  0  0
    9.5900   42.9670   44.1920 C   0  0  0  0  0  0  0  0  0  0  0  0
    9.9480   43.3010   45.6630 C   0  0  0  0  0  0  0  0  0  0  0  0
   10.0420   44.0260   42.3280 H   0  0  0  0  0  0  0  0  0  0  0  0
   20.2880   40.4790   41.2500 C   0  0  0  0  0  0  0  0  0  0  0  0
   20.5260   39.3140   40.3000 C   0  0  0  0  0  0  0  0  0  0  0  0
   19.6970   38.1100   40.7380 C   0  0  1  0  0  0  0  0  0  0  0  0
   20.6270   37.1170   41.5170 C   0  0  0  0  0  0  0  0  0  0  0  0
   21.3210   37.5300   42.5160 O   0  0  0  0  0  0  0  0  0  0  0  0
   20.6590   35.8960   41.1290 O   0  0  0  0  0  0  0  0  0  0  0  0
   18.5260   38.4630   41.5570 N   0  0  0  0  0  0  0  0  0  0  0  0
   17.4380   37.6080   41.7260 C   0  0  0  0  0  0  0  0  0  0  0  0
   17.3160   36.5170   41.1630 O   0  0  0  0  0  0  0  0  0  0  0  0
   18.5100   39.3800   42.0250 H   0  0  0  0  0  0  0  0  0  0  0  0
   16.2700   38.0450   42.6280 C   0  0  0  0  0  0  0  0  0  0  0  0
   16.1400   37.7990   44.4240 S   0  0  0  0  0  0  0  0  0  0  0  0
   15.1900   38.7190   42.2030 N   0  0  0  0  0  0  0  0  0  0  0  0
   14.5510   38.6230   44.5170 C   0  0  0  0  0  0  0  0  0  0  0  0
   14.2340   39.0360   43.2140 C   0  0  0  0  0  0  0  0  0  0  0  0
   13.6710   38.8880   45.5840 C   0  0  0  0  0  0  0  0  0  0  0  0
   13.0110   39.7300   42.9790 C   0  0  0  0  0  0  0  0  0  0  0  0
   12.4590   39.5750   45.3460 C   0  0  0  0  0  0  0  0  0  0  0  0
   12.1260   40.0000   44.0360 C   0  0  0  0  0  0  0  0  0  0  0  0
  1  3  2  0  0  0  0
  2  1  1  0  0  0  0
  2 20  1  0  0  0  0
  4  2  1  0  0  0  0
  5  1  1  0  0  0  0
  5  6  1  0  0  0  0
  6  7  1  0  0  0  0
  8  7  1  0  0  0  0
  8  9  1  0  0  0  0
  9 10  1  0  0  0  0
 10 12  2  0  0  0  0
 11  9  2  0  0  0  0
 11 13  1  0  0  0  0
 13 14  2  0  0  0  0
 14 12  1  0  0  0  0
 14 16  1  0  0  0  0
 15 13  1  0  0  0  0
 15 17  1  0  0  0  0
 17 18  1  0  0  0  0
 18 16  1  0  0  0  0
 19 15  1  0  0  0  0
 21 20  1  0  0  0  0
 22 21  1  1  0  0  0
 22 23  1  0  0  0  0
 22 26  1  0  0  0  0
 23 24  1  0  0  0  0
 25 23  2  0  0  0  0
 26 27  1  0  0  0  0
 26 29  1  0  0  0  0
 27 30  1  0  0  0  0
 28 27  2  0  0  0  0
 30 31  1  0  0  0  0
 31 33  1  0  0  0  0
 32 30  2  0  0  0  0
 32 34  1  0  0  0  0
 33 35  1  0  0  0  0
 34 33  2  0  0  0  0
 36 34  1  0  0  0  0
 36 38  2  0  0  0  0
 37 35  2  0  0  0  0
 38 37  1  0  0  0  0
M  END
>  <MODEL>
12

>  <REMARK>
 VINA RESULT:    -8.123      4.009      7.271
 INTER + INTRA:         -14.613
 INTER:                 -11.803
 INTRA:                  -2.810
 UNBOUND:                -1.267
 SMILES O=C(CCCCc1ccc2c(n1)NCCC2)NCC[C@H](NC(=O)c1nc2ccccc2s1)C(=O)[O-]
 SMILES IDX 2 1 17 2 1 3 3 5 4 6 5 7 6 8 7 9 8 10 12 11 9 12 11 13 10 14
 SMILES IDX 13 15 16 16 14 17 15 18 18 20 19 21 20 22 33 23 34 24 35 25
 SMILES IDX 21 26 22 27 23 28 24 30 32 31 25 32 31 33 26 34 30 35 27 36
 SMILES IDX 29 37 28 38
 H PARENT 17 4 13 19 21 29

>  <TORSDO>
F 11

$$$$
