docking/v2/isoforms/avb3/gate/pose_015.pdbqt
 OpenBabel09292623493D

 38 41  0  0  1  0  0  0  0  0999 V2000
   19.9940   42.7950   40.6270 C   0  0  0  0  0  0  0  0  0  0  0  0
   20.3900   41.4900   40.3120 N   0  0  0  0  0  0  0  0  0  0  0  0
   20.8770   43.6440   40.8410 O   0  0  0  0  0  0  0  0  0  0  0  0
   19.6750   40.7720   40.1260 H   0  0  0  0  0  0  0  0  0  0  0  0
   18.5580   43.1920   40.6820 C   0  0  0  0  0  0  0  0  0  0  0  0
   18.3020   44.2740   41.7500 C   0  0  0  0  0  0  0  0  0  0  0  0
   16.9490   44.9720   41.6960 C   0  0  0  0  0  0  0  0  0  0  0  0
   15.8690   44.0760   41.0550 C   0  0  0  0  0  0  0  0  0  0  0  0
   14.8330   43.5130   42.0590 C   0  0  0  0  0  0  0  0  0  0  0  0
   13.4650   43.6050   41.7310 C   0  0  0  0  0  0  0  0  0  0  0  0
   15.2200   42.9320   43.2100 N   0  0  0  0  0  0  0  0  0  0  0  0
   12.5000   43.0960   42.6270 C   0  0  0  0  0  0  0  0  0  0  0  0
   14.2920   42.4340   44.0950 C   0  0  0  0  0  0  0  0  0  0  0  0
   12.8970   42.4890   43.8470 C   0  0  0  0  0  0  0  0  0  0  0  0
   14.8060   41.8250   45.3110 N   0  0  0  0  0  0  0  0  0  0  0  0
   11.8860   41.9390   44.8090 C   0  0  0  0  0  0  0  0  0  0  0  0
   13.9020   41.8100   46.4640 C   0  0  0  0  0  0  0  0  0  0  0  0
   12.4370   41.3950   46.1690 C   0  0  0  0  0  0  0  0  0  0  0  0
   15.7550   41.4250   45.3600 H   0  0  0  0  0  0  0  0  0  0  0  0
   21.7710   41.1430   40.2460 C   0  0  0  0  0  0  0  0  0  0  0  0
   22.0330   39.7840   40.8790 C   0  0  0  0  0  0  0  0  0  0  0  0
   20.9920   38.7780   40.3990 C   0  0  1  0  0  0  0  0  0  0  0  0
   21.6740   37.3720   40.2730 C   0  0  0  0  0  0  0  0  0  0  0  0
   21.5010   36.4860   41.1880 O   0  0  0  0  0  0  0  0  0  0  0  0
   22.3900   37.1430   39.2360 O   0  0  0  0  0  0  0  0  0  0  0  0
   19.8040   38.6960   41.2620 N   0  0  0  0  0  0  0  0  0  0  0  0
   18.5700   38.2350   40.8070 C   0  0  0  0  0  0  0  0  0  0  0  0
   18.3330   37.9200   39.6370 O   0  0  0  0  0  0  0  0  0  0  0  0
   19.8880   38.9900   42.2460 H   0  0  0  0  0  0  0  0  0  0  0  0
   17.3880   38.1510   41.7880 C   0  0  0  0  0  0  0  0  0  0  0  0
   17.3970   37.3630   43.4260 S   0  0  0  0  0  0  0  0  0  0  0  0
   16.1810   38.6990   41.5780 N   0  0  0  0  0  0  0  0  0  0  0  0
   15.6890   37.7990   43.7510 C   0  0  0  0  0  0  0  0  0  0  0  0
   15.2350   38.5110   42.6300 C   0  0  0  0  0  0  0  0  0  0  0  0
   14.8300   37.5610   44.8410 C   0  0  0  0  0  0  0  0  0  0  0  0
   13.8940   38.9950   42.6050 C   0  0  0  0  0  0  0  0  0  0  0  0
   13.5010   38.0410   44.8110 C   0  0  0  0  0  0  0  0  0  0  0  0
   13.0290   38.7630   43.6870 C   0  0  0  0  0  0  0  0  0  0  0  0
  1  5  1  0  0  0  0
  1  3  2  0  0  0  0
  2  1  1  0  0  0  0
  4  2  1  0  0  0  0
  5  6  1  0  0  0  0
  7  6  1  0  0  0  0
  8  7  1  0  0  0  0
  8  9  1  0  0  0  0
  9 11  1  0  0  0  0
 10  9  2  0  0  0  0
 10 12  1  0  0  0  0
 11 13  2  0  0  0  0
 12 14  2  0  0  0  0
 13 15  1  0  0  0  0
 14 13  1  0  0  0  0
 14 16  1  0  0  0  0
 15 19  1  0  0  0  0
 15 17  1  0  0  0  0
 16 18  1  0  0  0  0
 18 17  1  0  0  0  0
 20  2  1  0  0  0  0
 20 21  1  0  0  0  0
 22 21  1  1  0  0  0
 22 26  1  0  0  0  0
 23 22  1  0  0  0  0
 23 24  1  0  0  0  0
 25 23  2  0  0  0  0
 26 29  1  0  0  0  0
 27 26  1  0  0  0  0
 27 30  1  0  0  0  0
 28 27  2  0  0  0  0
 30 31  1  0  0  0  0
 31 33  1  0  0  0  0
 32 30  2  0  0  0  0
 32 34  1  0  0  0  0
 33 35  1  0  0  0  0
 34 33  2  0  0  0  0
 36 34  1  0  0  0  0
 36 38  2  0  0  0  0
 37 35  2  0  0  0  0
 38 37  1  0  0  0  0
M  END
>  <MODEL>
15

>  <REMARK>
 VINA RESULT:    -7.942      3.479      6.570
 INTER + INTRA:         -14.316
 INTER:                 -12.347
 INTRA:                  -1.969
 UNBOUND:                -1.267
 SMILES O=C(CCCCc1ccc2c(n1)NCCC2)NCC[C@H](NC(=O)c1nc2ccccc2s1)C(=O)[O-]
 SMILES IDX 2 1 17 2 1 3 3 5 4 6 5 7 6 8 7 9 8 10 12 11 9 12 11 13 10 14
 SMILES IDX 13 15 16 16 14 17 15 18 18 20 19 21 20 22 33 23 34 24 35 25
 SMILES IDX 21 26 22 27 23 28 24 30 32 31 25 32 31 33 26 34 30 35 27 36
 SMILES IDX 29 37 28 38
 H PARENT 17 4 13 19 21 29

>  <TORSDO>
F 11

$$$$
