docking/v2/isoforms/avb3/gate/pose_002.pdbqt
 OpenBabel09292623483D

 38 41  0  0  1  0  0  0  0  0999 V2000
   19.1270   40.4020   40.4940 C   0  0  0  0  0  0  0  0  0  0  0  0
   20.4360   40.8840   40.5970 N   0  0  0  0  0  0  0  0  0  0  0  0
   18.2040   41.0950   40.9590 O   0  0  0  0  0  0  0  0  0  0  0  0
   21.2150   40.3290   40.2150 H   0  0  0  0  0  0  0  0  0  0  0  0
   18.8130   39.1080   39.8240 C   0  0  0  0  0  0  0  0  0  0  0  0
   19.8740   38.7360   38.7680 C   0  0  0  0  0  0  0  0  0  0  0  0
   20.8100   37.5900   39.1240 C   0  0  0  0  0  0  0  0  0  0  0  0
   20.6400   37.1470   40.5920 C   0  0  0  0  0  0  0  0  0  0  0  0
   21.7960   37.5860   41.5260 C   0  0  0  0  0  0  0  0  0  0  0  0
   22.8450   38.3500   40.9780 C   0  0  0  0  0  0  0  0  0  0  0  0
   21.7970   37.2650   42.8340 N   0  0  0  0  0  0  0  0  0  0  0  0
   23.9090   38.7660   41.8080 C   0  0  0  0  0  0  0  0  0  0  0  0
   22.8270   37.6600   43.6550 C   0  0  0  0  0  0  0  0  0  0  0  0
   23.9240   38.4260   43.1860 C   0  0  0  0  0  0  0  0  0  0  0  0
   22.7400   37.2650   45.0520 N   0  0  0  0  0  0  0  0  0  0  0  0
   25.0440   38.8630   44.0840 C   0  0  0  0  0  0  0  0  0  0  0  0
   24.0080   37.1690   45.7810 C   0  0  0  0  0  0  0  0  0  0  0  0
   25.0070   38.3340   45.5560 C   0  0  0  0  0  0  0  0  0  0  0  0
   21.8370   37.0650   45.5050 H   0  0  0  0  0  0  0  0  0  0  0  0
   20.7060   42.1350   41.2260 C   0  0  0  0  0  0  0  0  0  0  0  0
   21.1450   43.1830   40.2140 C   0  0  0  0  0  0  0  0  0  0  0  0
   22.5660   43.6420   40.5250 C   0  0  1  0  0  0  0  0  0  0  0  0
   23.4680   42.3760   40.7280 C   0  0  0  0  0  0  0  0  0  0  0  0
   23.5900   41.5110   39.7850 O   0  0  0  0  0  0  0  0  0  0  0  0
   24.0760   42.2450   41.8480 O   0  0  0  0  0  0  0  0  0  0  0  0
   23.1430   44.5220   39.4970 N   0  0  0  0  0  0  0  0  0  0  0  0
   24.2310   45.3580   39.7440 C   0  0  0  0  0  0  0  0  0  0  0  0
   24.7680   45.4940   40.8470 O   0  0  0  0  0  0  0  0  0  0  0  0
   22.7260   44.5200   38.5560 H   0  0  0  0  0  0  0  0  0  0  0  0
   24.7920   46.2220   38.6010 C   0  0  0  0  0  0  0  0  0  0  0  0
   26.5430   46.4130   38.1490 S   0  0  0  0  0  0  0  0  0  0  0  0
   24.0430   46.9280   37.7400 N   0  0  0  0  0  0  0  0  0  0  0  0
   26.1680   47.5110   36.7820 C   0  0  0  0  0  0  0  0  0  0  0  0
   24.7720   47.6480   36.7470 C   0  0  0  0  0  0  0  0  0  0  0  0
   26.9750   48.1810   35.8430 C   0  0  0  0  0  0  0  0  0  0  0  0
   24.1760   48.4730   35.7480 C   0  0  0  0  0  0  0  0  0  0  0  0
   26.3800   49.0000   34.8560 C   0  0  0  0  0  0  0  0  0  0  0  0
   24.9710   49.1460   34.8070 C   0  0  0  0  0  0  0  0  0  0  0  0
  1  2  1  0  0  0  0
  1  3  2  0  0  0  0
  2 20  1  0  0  0  0
  4  2  1  0  0  0  0
  5  1  1  0  0  0  0
  6  7  1  0  0  0  0
  6  5  1  0  0  0  0
  7  8  1  0  0  0  0
  8  9  1  0  0  0  0
  9 11  1  0  0  0  0
 10  9  2  0  0  0  0
 10 12  1  0  0  0  0
 11 13  2  0  0  0  0
 12 14  2  0  0  0  0
 13 15  1  0  0  0  0
 14 13  1  0  0  0  0
 14 16  1  0  0  0  0
 15 19  1  0  0  0  0
 15 17  1  0  0  0  0
 16 18  1  0  0  0  0
 18 17  1  0  0  0  0
 21 20  1  0  0  0  0
 22 21  1  6  0  0  0
 22 23  1  0  0  0  0
 23 25  1  0  0  0  0
 24 23  2  0  0  0  0
 26 27  1  0  0  0  0
 26 22  1  0  0  0  0
 27 28  2  0  0  0  0
 29 26  1  0  0  0  0
 30 27  1  0  0  0  0
 31 30  1  0  0  0  0
 32 30  2  0  0  0  0
 33 31  1  0  0  0  0
 34 33  1  0  0  0  0
 34 32  1  0  0  0  0
 35 33  2  0  0  0  0
 36 34  2  0  0  0  0
 37 35  1  0  0  0  0
 38 37  2  0  0  0  0
 38 36  1  0  0  0  0
M  END
>  <MODEL>
2

>  <REMARK>
 VINA RESULT:    -8.544      5.607      8.757
 INTER + INTRA:         -15.305
 INTER:                 -13.750
 INTRA:                  -1.556
 UNBOUND:                -1.267
 SMILES O=C(CCCCc1ccc2c(n1)NCCC2)NCC[C@H](NC(=O)c1nc2ccccc2s1)C(=O)[O-]
 SMILES IDX 2 1 17 2 1 3 3 5 4 6 5 7 6 8 7 9 8 10 12 11 9 12 11 13 10 14
 SMILES IDX 13 15 16 16 14 17 15 18 18 20 19 21 20 22 33 23 34 24 35 25
 SMILES IDX 21 26 22 27 23 28 24 30 32 31 25 32 31 33 26 34 30 35 27 36
 SMILES IDX 29 37 28 38
 H PARENT 17 4 13 19 21 29

>  <TORSDO>
F 11

$$$$
