docking/v2/isoforms/avb3/gate/pose_010.pdbqt
 OpenBabel09292623493D

 38 41  0  0  1  0  0  0  0  0999 V2000
   18.4450   41.9190   40.7310 C   0  0  0  0  0  0  0  0  0  0  0  0
   19.7300   41.5810   40.2910 N   0  0  0  0  0  0  0  0  0  0  0  0
   17.8960   41.1840   41.5690 O   0  0  0  0  0  0  0  0  0  0  0  0
   20.2050   42.1790   39.6000 H   0  0  0  0  0  0  0  0  0  0  0  0
   17.7410   43.1410   40.2450 C   0  0  0  0  0  0  0  0  0  0  0  0
   17.7610   44.2700   41.2940 C   0  0  0  0  0  0  0  0  0  0  0  0
   16.4090   44.8370   41.7040 C   0  0  0  0  0  0  0  0  0  0  0  0
   15.2760   43.8070   41.5180 C   0  0  0  0  0  0  0  0  0  0  0  0
   14.2460   43.7790   42.6740 C   0  0  0  0  0  0  0  0  0  0  0  0
   14.7130   43.9620   43.9910 C   0  0  0  0  0  0  0  0  0  0  0  0
   12.9330   43.6020   42.4350 N   0  0  0  0  0  0  0  0  0  0  0  0
   13.7940   43.9450   45.0630 C   0  0  0  0  0  0  0  0  0  0  0  0
   12.0250   43.5790   43.4690 C   0  0  0  0  0  0  0  0  0  0  0  0
   12.4080   43.7510   44.8230 C   0  0  0  0  0  0  0  0  0  0  0  0
   10.6290   43.3810   43.1110 N   0  0  0  0  0  0  0  0  0  0  0  0
   11.4180   43.7340   45.9490 C   0  0  0  0  0  0  0  0  0  0  0  0
    9.7680   42.8080   44.1480 C   0  0  0  0  0  0  0  0  0  0  0  0
    9.9360   43.4000   45.5710 C   0  0  0  0  0  0  0  0  0  0  0  0
   10.2660   43.6320   42.1800 H   0  0  0  0  0  0  0  0  0  0  0  0
   20.3880   40.4180   40.7870 C   0  0  0  0  0  0  0  0  0  0  0  0
   20.5240   39.3530   39.7080 C   0  0  0  0  0  0  0  0  0  0  0  0
   19.7900   38.0860   40.1340 C   0  0  1  0  0  0  0  0  0  0  0  0
   20.8480   37.0270   40.6000 C   0  0  0  0  0  0  0  0  0  0  0  0
   20.4780   35.9930   41.2680 O   0  0  0  0  0  0  0  0  0  0  0  0
   22.0750   37.2250   40.2850 O   0  0  0  0  0  0  0  0  0  0  0  0
   18.7890   38.3070   41.1890 N   0  0  0  0  0  0  0  0  0  0  0  0
   17.5240   37.7200   41.1640 C   0  0  0  0  0  0  0  0  0  0  0  0
   17.0980   37.0240   40.2390 O   0  0  0  0  0  0  0  0  0  0  0  0
   19.0320   38.9210   41.9790 H   0  0  0  0  0  0  0  0  0  0  0  0
   16.5500   37.9800   42.3270 C   0  0  0  0  0  0  0  0  0  0  0  0
   16.2970   36.9210   43.7830 S   0  0  0  0  0  0  0  0  0  0  0  0
   15.7750   39.0690   42.4440 N   0  0  0  0  0  0  0  0  0  0  0  0
   15.0810   38.0270   44.4940 C   0  0  0  0  0  0  0  0  0  0  0  0
   14.9570   39.1120   43.6120 C   0  0  0  0  0  0  0  0  0  0  0  0
   14.3150   37.9770   45.6750 C   0  0  0  0  0  0  0  0  0  0  0  0
   14.0490   40.1660   43.9230 C   0  0  0  0  0  0  0  0  0  0  0  0
   13.4150   39.0240   45.9790 C   0  0  0  0  0  0  0  0  0  0  0  0
   13.2810   40.1260   45.0980 C   0  0  0  0  0  0  0  0  0  0  0  0
  1  3  2  0  0  0  0
  2  1  1  0  0  0  0
  2 20  1  0  0  0  0
  4  2  1  0  0  0  0
  5  1  1  0  0  0  0
  5  6  1  0  0  0  0
  6  7  1  0  0  0  0
  8  7  1  0  0  0  0
  8  9  1  0  0  0  0
  9 10  1  0  0  0  0
 10 12  2  0  0  0  0
 11  9  2  0  0  0  0
 11 13  1  0  0  0  0
 13 14  2  0  0  0  0
 14 12  1  0  0  0  0
 14 16  1  0  0  0  0
 15 13  1  0  0  0  0
 15 17  1  0  0  0  0
 17 18  1  0  0  0  0
 18 16  1  0  0  0  0
 19 15  1  0  0  0  0
 21 20  1  0  0  0  0
 22 21  1  1  0  0  0
 22 23  1  0  0  0  0
 22 26  1  0  0  0  0
 23 24  1  0  0  0  0
 25 23  2  0  0  0  0
 26 29  1  0  0  0  0
 27 26  1  0  0  0  0
 27 30  1  0  0  0  0
 28 27  2  0  0  0  0
 30 32  2  0  0  0  0
 30 31  1  0  0  0  0
 31 33  1  0  0  0  0
 32 34  1  0  0  0  0
 33 35  1  0  0  0  0
 34 36  1  0  0  0  0
 34 33  2  0  0  0  0
 35 37  2  0  0  0  0
 36 38  2  0  0  0  0
 38 37  1  0  0  0  0
M  END
>  <MODEL>
10

>  <REMARK>
 VINA RESULT:    -8.158      4.052      6.975
 INTER + INTRA:         -14.671
 INTER:                 -12.174
 INTRA:                  -2.497
 UNBOUND:                -1.267
 SMILES O=C(CCCCc1ccc2c(n1)NCCC2)NCC[C@H](NC(=O)c1nc2ccccc2s1)C(=O)[O-]
 SMILES IDX 2 1 17 2 1 3 3 5 4 6 5 7 6 8 7 9 8 10 12 11 9 12 11 13 10 14
 SMILES IDX 13 15 16 16 14 17 15 18 18 20 19 21 20 22 33 23 34 24 35 25
 SMILES IDX 21 26 22 27 23 28 24 30 32 31 25 32 31 33 26 34 30 35 27 36
 SMILES IDX 29 37 28 38
 H PARENT 17 4 13 19 21 29

>  <TORSDO>
F 11

$$$$
