docking/v2/isoforms/avb3/gate/pose_003.pdbqt
 OpenBabel09292623483D

 38 41  0  0  1  0  0  0  0  0999 V2000
   18.3900   41.4000   40.5440 C   0  0  0  0  0  0  0  0  0  0  0  0
   19.0890   40.7140   39.5460 N   0  0  0  0  0  0  0  0  0  0  0  0
   17.8350   40.7380   41.4390 O   0  0  0  0  0  0  0  0  0  0  0  0
   19.5600   41.2430   38.7980 H   0  0  0  0  0  0  0  0  0  0  0  0
   18.3200   42.8900   40.5770 C   0  0  0  0  0  0  0  0  0  0  0  0
   16.8640   43.3960   40.5800 C   0  0  0  0  0  0  0  0  0  0  0  0
   16.6000   44.6920   41.3340 C   0  0  0  0  0  0  0  0  0  0  0  0
   16.0750   44.4280   42.7600 C   0  0  0  0  0  0  0  0  0  0  0  0
   15.1380   43.2000   42.8750 C   0  0  0  0  0  0  0  0  0  0  0  0
   13.7940   43.3430   42.4770 C   0  0  0  0  0  0  0  0  0  0  0  0
   15.5930   42.0150   43.3260 N   0  0  0  0  0  0  0  0  0  0  0  0
   12.9200   42.2370   42.5680 C   0  0  0  0  0  0  0  0  0  0  0  0
   14.7540   40.9300   43.4240 C   0  0  0  0  0  0  0  0  0  0  0  0
   13.3870   40.9870   43.0500 C   0  0  0  0  0  0  0  0  0  0  0  0
   15.3360   39.6940   43.9230 N   0  0  0  0  0  0  0  0  0  0  0  0
   12.4750   39.8010   43.1500 C   0  0  0  0  0  0  0  0  0  0  0  0
   14.4110   38.7460   44.5490 C   0  0  0  0  0  0  0  0  0  0  0  0
   13.0740   38.5090   43.8000 C   0  0  0  0  0  0  0  0  0  0  0  0
   16.3440   39.4950   43.8400 H   0  0  0  0  0  0  0  0  0  0  0  0
   19.1570   39.2900   39.5500 C   0  0  0  0  0  0  0  0  0  0  0  0
   20.5730   38.8010   39.8170 C   0  0  0  0  0  0  0  0  0  0  0  0
   20.7020   38.3520   41.2690 C   0  0  1  0  0  0  0  0  0  0  0  0
   20.0270   36.9450   41.4200 C   0  0  0  0  0  0  0  0  0  0  0  0
   18.8450   36.8450   41.9140 O   0  0  0  0  0  0  0  0  0  0  0  0
   20.6860   35.9180   41.0280 O   0  0  0  0  0  0  0  0  0  0  0  0
   22.0900   38.3090   41.7560 N   0  0  0  0  0  0  0  0  0  0  0  0
   22.8950   39.4430   41.8430 C   0  0  0  0  0  0  0  0  0  0  0  0
   22.5560   40.5680   41.4630 O   0  0  0  0  0  0  0  0  0  0  0  0
   22.4820   37.4020   42.0450 H   0  0  0  0  0  0  0  0  0  0  0  0
   24.3250   39.3120   42.3950 C   0  0  0  0  0  0  0  0  0  0  0  0
   24.8170   39.3620   44.1440 S   0  0  0  0  0  0  0  0  0  0  0  0
   25.4160   39.0940   41.6440 N   0  0  0  0  0  0  0  0  0  0  0  0
   26.5500   39.1090   43.7620 C   0  0  0  0  0  0  0  0  0  0  0  0
   26.6420   38.9900   42.3660 C   0  0  0  0  0  0  0  0  0  0  0  0
   27.7050   39.0210   44.5630 C   0  0  0  0  0  0  0  0  0  0  0  0
   27.9170   38.7770   41.7650 C   0  0  0  0  0  0  0  0  0  0  0  0
   28.9670   38.8110   43.9620 C   0  0  0  0  0  0  0  0  0  0  0  0
   29.0750   38.6880   42.5550 C   0  0  0  0  0  0  0  0  0  0  0  0
  1  5  1  0  0  0  0
  1  3  2  0  0  0  0
  2 20  1  0  0  0  0
  2  1  1  0  0  0  0
  4  2  1  0  0  0  0
  5  6  1  0  0  0  0
  6  7  1  0  0  0  0
  7  8  1  0  0  0  0
  8  9  1  0  0  0  0
  9 11  1  0  0  0  0
 10 12  1  0  0  0  0
 10  9  2  0  0  0  0
 11 13  2  0  0  0  0
 12 14  2  0  0  0  0
 13 15  1  0  0  0  0
 14 16  1  0  0  0  0
 14 13  1  0  0  0  0
 15 17  1  0  0  0  0
 16 18  1  0  0  0  0
 18 17  1  0  0  0  0
 19 15  1  0  0  0  0
 20 21  1  0  0  0  0
 22 21  1  6  0  0  0
 22 23  1  0  0  0  0
 22 26  1  0  0  0  0
 23 24  1  0  0  0  0
 25 23  2  0  0  0  0
 26 27  1  0  0  0  0
 26 29  1  0  0  0  0
 27 30  1  0  0  0  0
 28 27  2  0  0  0  0
 30 31  1  0  0  0  0
 32 34  1  0  0  0  0
 32 30  2  0  0  0  0
 33 31  1  0  0  0  0
 33 35  1  0  0  0  0
 34 33  2  0  0  0  0
 36 34  1  0  0  0  0
 36 38  2  0  0  0  0
 37 35  2  0  0  0  0
 38 37  1  0  0  0  0
M  END
>  <MODEL>
3

>  <REMARK>
 VINA RESULT:    -8.479      0.527      0.750
 INTER + INTRA:         -15.199
 INTER:                 -14.185
 INTRA:                  -1.014
 UNBOUND:                -1.267
 SMILES O=C(CCCCc1ccc2c(n1)NCCC2)NCC[C@H](NC(=O)c1nc2ccccc2s1)C(=O)[O-]
 SMILES IDX 2 1 17 2 1 3 3 5 4 6 5 7 6 8 7 9 8 10 12 11 9 12 11 13 10 14
 SMILES IDX 13 15 16 16 14 17 15 18 18 20 19 21 20 22 33 23 34 24 35 25
 SMILES IDX 21 26 22 27 23 28 24 30 32 31 25 32 31 33 26 34 30 35 27 36
 SMILES IDX 29 37 28 38
 H PARENT 17 4 13 19 21 29

>  <TORSDO>
F 11

$$$$
