docking/v2/isoforms/avb3/gate/pose_001.pdbqt
 OpenBabel09292623483D

 38 41  0  0  1  0  0  0  0  0999 V2000
   18.6020   40.9230   40.6410 C   0  0  0  0  0  0  0  0  0  0  0  0
   19.2700   40.4760   39.4950 N   0  0  0  0  0  0  0  0  0  0  0  0
   18.0370   40.0800   41.3610 O   0  0  0  0  0  0  0  0  0  0  0  0
   19.7490   41.1560   38.8880 H   0  0  0  0  0  0  0  0  0  0  0  0
   18.5770   42.3620   41.0280 C   0  0  0  0  0  0  0  0  0  0  0  0
   17.5640   43.1650   40.1880 C   0  0  0  0  0  0  0  0  0  0  0  0
   16.5450   43.9900   40.9630 C   0  0  0  0  0  0  0  0  0  0  0  0
   16.4570   43.5490   42.4390 C   0  0  0  0  0  0  0  0  0  0  0  0
   15.3250   42.5330   42.7320 C   0  0  0  0  0  0  0  0  0  0  0  0
   13.9960   43.0030   42.7690 C   0  0  0  0  0  0  0  0  0  0  0  0
   15.5920   41.2290   42.9320 N   0  0  0  0  0  0  0  0  0  0  0  0
   12.9450   42.0970   43.0300 C   0  0  0  0  0  0  0  0  0  0  0  0
   14.5800   40.3340   43.1910 C   0  0  0  0  0  0  0  0  0  0  0  0
   13.2170   40.7210   43.2500 C   0  0  0  0  0  0  0  0  0  0  0  0
   14.9670   38.9470   43.3930 N   0  0  0  0  0  0  0  0  0  0  0  0
   12.1130   39.7440   43.5250 C   0  0  0  0  0  0  0  0  0  0  0  0
   14.0520   38.1270   44.1920 C   0  0  0  0  0  0  0  0  0  0  0  0
   12.5440   38.2780   43.8610 C   0  0  0  0  0  0  0  0  0  0  0  0
   15.8360   38.5620   42.9960 H   0  0  0  0  0  0  0  0  0  0  0  0
   19.2960   39.0910   39.1590 C   0  0  0  0  0  0  0  0  0  0  0  0
   20.6560   38.4730   39.4490 C   0  0  0  0  0  0  0  0  0  0  0  0
   20.8090   38.2360   40.9480 C   0  0  1  0  0  0  0  0  0  0  0  0
   20.1110   36.8810   41.3150 C   0  0  0  0  0  0  0  0  0  0  0  0
   20.7430   35.7710   41.1800 O   0  0  0  0  0  0  0  0  0  0  0  0
   18.9090   36.9260   41.7560 O   0  0  0  0  0  0  0  0  0  0  0  0
   22.2070   38.2320   41.4080 N   0  0  0  0  0  0  0  0  0  0  0  0
   22.8230   39.3550   41.9590 C   0  0  0  0  0  0  0  0  0  0  0  0
   22.2910   40.4640   42.0540 O   0  0  0  0  0  0  0  0  0  0  0  0
   22.7530   37.3640   41.3190 H   0  0  0  0  0  0  0  0  0  0  0  0
   24.2790   39.2530   42.4450 C   0  0  0  0  0  0  0  0  0  0  0  0
   24.8580   39.3930   44.1630 S   0  0  0  0  0  0  0  0  0  0  0  0
   25.3320   38.9960   41.6530 N   0  0  0  0  0  0  0  0  0  0  0  0
   26.5710   39.1210   43.7070 C   0  0  0  0  0  0  0  0  0  0  0  0
   26.5930   38.9310   42.3170 C   0  0  0  0  0  0  0  0  0  0  0  0
   27.7640   39.0760   44.4530 C   0  0  0  0  0  0  0  0  0  0  0  0
   27.8360   38.6880   41.6640 C   0  0  0  0  0  0  0  0  0  0  0  0
   28.9950   38.8360   43.8010 C   0  0  0  0  0  0  0  0  0  0  0  0
   29.0330   38.6400   42.3980 C   0  0  0  0  0  0  0  0  0  0  0  0
  1  5  1  0  0  0  0
  1  3  2  0  0  0  0
  2  1  1  0  0  0  0
  4  2  1  0  0  0  0
  6  7  1  0  0  0  0
  6  5  1  0  0  0  0
  7  8  1  0  0  0  0
  8  9  1  0  0  0  0
  9 10  2  0  0  0  0
  9 11  1  0  0  0  0
 10 12  1  0  0  0  0
 11 13  2  0  0  0  0
 12 14  2  0  0  0  0
 13 14  1  0  0  0  0
 13 15  1  0  0  0  0
 14 16  1  0  0  0  0
 15 17  1  0  0  0  0
 16 18  1  0  0  0  0
 18 17  1  0  0  0  0
 19 15  1  0  0  0  0
 20 21  1  0  0  0  0
 20  2  1  0  0  0  0
 22 21  1  6  0  0  0
 22 23  1  0  0  0  0
 22 26  1  0  0  0  0
 23 25  1  0  0  0  0
 24 23  2  0  0  0  0
 26 27  1  0  0  0  0
 27 28  2  0  0  0  0
 27 30  1  0  0  0  0
 29 26  1  0  0  0  0
 30 31  1  0  0  0  0
 32 34  1  0  0  0  0
 32 30  2  0  0  0  0
 33 31  1  0  0  0  0
 33 35  1  0  0  0  0
 34 33  2  0  0  0  0
 36 34  1  0  0  0  0
 36 38  2  0  0  0  0
 37 35  2  0  0  0  0
 38 37  1  0  0  0  0
M  END
>  <MODEL>
1

>  <REMARK>
 VINA RESULT:    -8.639      0.000      0.000
 INTER + INTRA:         -15.462
 INTER:                 -14.194
 INTRA:                  -1.267
 UNBOUND:                -1.267
 SMILES O=C(CCCCc1ccc2c(n1)NCCC2)NCC[C@H](NC(=O)c1nc2ccccc2s1)C(=O)[O-]
 SMILES IDX 2 1 17 2 1 3 3 5 4 6 5 7 6 8 7 9 8 10 12 11 9 12 11 13 10 14
 SMILES IDX 13 15 16 16 14 17 15 18 18 20 19 21 20 22 33 23 34 24 35 25
 SMILES IDX 21 26 22 27 23 28 24 30 32 31 25 32 31 33 26 34 30 35 27 36
 SMILES IDX 29 37 28 38
 H PARENT 17 4 13 19 21 29

>  <TORSDO>
F 11

$$$$
