docking/v2/isoforms/avb3/gate/pose_008.pdbqt
 OpenBabel09292623493D

 38 41  0  0  1  0  0  0  0  0999 V2000
   17.7630   42.3670   41.0000 C   0  0  0  0  0  0  0  0  0  0  0  0
   18.5830   41.7040   40.0800 N   0  0  0  0  0  0  0  0  0  0  0  0
   17.2980   41.7170   41.9530 O   0  0  0  0  0  0  0  0  0  0  0  0
   18.9830   42.2250   39.2870 H   0  0  0  0  0  0  0  0  0  0  0  0
   17.4620   43.8230   40.8820 C   0  0  0  0  0  0  0  0  0  0  0  0
   17.6840   44.5650   42.2150 C   0  0  0  0  0  0  0  0  0  0  0  0
   16.5840   45.5260   42.6460 C   0  0  0  0  0  0  0  0  0  0  0  0
   17.0470   46.4480   43.7930 C   0  0  0  0  0  0  0  0  0  0  0  0
   17.0400   47.9560   43.4380 C   0  0  0  0  0  0  0  0  0  0  0  0
   18.1460   48.7390   43.8250 C   0  0  0  0  0  0  0  0  0  0  0  0
   16.0150   48.5090   42.7620 N   0  0  0  0  0  0  0  0  0  0  0  0
   18.1660   50.1160   43.5100 C   0  0  0  0  0  0  0  0  0  0  0  0
   16.0190   49.8490   42.4520 C   0  0  0  0  0  0  0  0  0  0  0  0
   17.0880   50.7110   42.8050 C   0  0  0  0  0  0  0  0  0  0  0  0
   14.8680   50.3560   41.7200 N   0  0  0  0  0  0  0  0  0  0  0  0
   17.0940   52.1700   42.4590 C   0  0  0  0  0  0  0  0  0  0  0  0
   14.5790   51.7840   41.8700 C   0  0  0  0  0  0  0  0  0  0  0  0
   15.8020   52.7340   41.7810 C   0  0  0  0  0  0  0  0  0  0  0  0
   14.2880   49.7430   41.1280 H   0  0  0  0  0  0  0  0  0  0  0  0
   18.8710   40.3160   40.2280 C   0  0  0  0  0  0  0  0  0  0  0  0
   20.3680   40.0500   40.1750 C   0  0  0  0  0  0  0  0  0  0  0  0
   20.7360   38.9520   41.1680 C   0  0  1  0  0  0  0  0  0  0  0  0
   20.2640   37.5740   40.5880 C   0  0  0  0  0  0  0  0  0  0  0  0
   20.5090   37.2690   39.3640 O   0  0  0  0  0  0  0  0  0  0  0  0
   19.6430   36.7730   41.3730 O   0  0  0  0  0  0  0  0  0  0  0  0
   22.1690   38.9040   41.4970 N   0  0  0  0  0  0  0  0  0  0  0  0
   22.6870   39.4060   42.6900 C   0  0  0  0  0  0  0  0  0  0  0  0
   22.0190   39.9920   43.5460 O   0  0  0  0  0  0  0  0  0  0  0  0
   22.8170   38.4820   40.8170 H   0  0  0  0  0  0  0  0  0  0  0  0
   24.1950   39.2850   42.9660 C   0  0  0  0  0  0  0  0  0  0  0  0
   25.0100   39.4030   44.5870 S   0  0  0  0  0  0  0  0  0  0  0  0
   25.1240   39.0270   42.0330 N   0  0  0  0  0  0  0  0  0  0  0  0
   26.6390   39.1200   43.8950 C   0  0  0  0  0  0  0  0  0  0  0  0
   26.4650   38.9430   42.5130 C   0  0  0  0  0  0  0  0  0  0  0  0
   27.9250   39.0550   44.4660 C   0  0  0  0  0  0  0  0  0  0  0  0
   27.6020   38.6940   41.6910 C   0  0  0  0  0  0  0  0  0  0  0  0
   29.0500   38.8100   43.6460 C   0  0  0  0  0  0  0  0  0  0  0  0
   28.8900   38.6280   42.2500 C   0  0  0  0  0  0  0  0  0  0  0  0
  1  3  2  0  0  0  0
  2 20  1  0  0  0  0
  2  1  1  0  0  0  0
  4  2  1  0  0  0  0
  5  1  1  0  0  0  0
  5  6  1  0  0  0  0
  6  7  1  0  0  0  0
  7  8  1  0  0  0  0
  9  8  1  0  0  0  0
  9 10  1  0  0  0  0
 11  9  2  0  0  0  0
 12 10  2  0  0  0  0
 13 11  1  0  0  0  0
 13 14  2  0  0  0  0
 14 12  1  0  0  0  0
 15 17  1  0  0  0  0
 15 13  1  0  0  0  0
 16 14  1  0  0  0  0
 18 17  1  0  0  0  0
 18 16  1  0  0  0  0
 19 15  1  0  0  0  0
 21 20  1  0  0  0  0
 22 21  1  6  0  0  0
 22 26  1  0  0  0  0
 23 22  1  0  0  0  0
 23 25  1  0  0  0  0
 24 23  2  0  0  0  0
 26 27  1  0  0  0  0
 27 30  1  0  0  0  0
 27 28  2  0  0  0  0
 29 26  1  0  0  0  0
 30 31  1  0  0  0  0
 32 34  1  0  0  0  0
 32 30  2  0  0  0  0
 33 35  1  0  0  0  0
 33 31  1  0  0  0  0
 34 33  2  0  0  0  0
 36 38  2  0  0  0  0
 36 34  1  0  0  0  0
 37 35  2  0  0  0  0
 38 37  1  0  0  0  0
M  END
>  <MODEL>
8

>  <REMARK>
 VINA RESULT:    -8.174      4.058      5.902
 INTER + INTRA:         -14.698
 INTER:                 -13.920
 INTRA:                  -0.778
 UNBOUND:                -1.267
 SMILES O=C(CCCCc1ccc2c(n1)NCCC2)NCC[C@H](NC(=O)c1nc2ccccc2s1)C(=O)[O-]
 SMILES IDX 2 1 17 2 1 3 3 5 4 6 5 7 6 8 7 9 8 10 12 11 9 12 11 13 10 14
 SMILES IDX 13 15 16 16 14 17 15 18 18 20 19 21 20 22 33 23 34 24 35 25
 SMILES IDX 21 26 22 27 23 28 24 30 32 31 25 32 31 33 26 34 30 35 27 36
 SMILES IDX 29 37 28 38
 H PARENT 17 4 13 19 21 29

>  <TORSDO>
F 11

$$$$
