ligand_crystal.pdb
 OpenBabel09272613213D

 22  6  0  0  0  0  0  0  0  0999 V2000
    1.1500    5.0000    1.0000 C   0  0  0  0  0  0  0  0  0  0  0  0
    0.3400    3.0000    5.0000 C   0  0  0  0  0  0  0  0  0  0  0  0
    0.5000    5.0000    3.0000 C   0  0  0  0  0  0  0  0  0  0  0  0
    1.5700    8.0000    4.0000 C   0  0  0  0  0  0  0  0  0  0  0  0
    2.8000    1.0000    4.0000 N   0  0  0  0  0  0  0  0  0  0  0  0
    3.4400    2.0000    4.0000 C   0  0  0  0  0  0  0  0  0  0  0  0
    3.7600    9.0000    7.0000 C   0  0  0  0  0  0  0  0  0  0  0  0
    3.6200    5.0000    0.0000 O   0  0  0  0  0  0  0  0  0  0  0  0
    4.7700    9.0000    5.0000 C   0  0  0  0  0  0  0  0  0  0  0  0
    4.5800    7.0000    5.0000 C   0  0  0  0  0  0  0  0  0  0  0  0
    4.6500    7.0000    5.0000 Cd  0  0  0  0  0  0  0  0  0  0  0  0
    4.3400    0.0000    7.0000 Cd  0  0  0  0  0  0  0  0  0  0  0  0
    4.4800    1.0000    3.0000 Ce  0  0  0  0  0  0  0  0  0  0  0  0
    4.1600    6.0000    3.0000 Ce  0  0  0  0  0  0  0  0  0  0  0  0
    4.2300    6.0000    9.0000 C   0  0  0  0  0  0  0  0  0  0  0  0
    4.1400    2.0000    9.0000 O   0  0  0  0  0  0  0  0  0  0  0  0
    1.4000    3.0000    1.0000 C   0  0  0  0  0  0  0  0  0  0  0  0
    0.9900    5.0000    5.0000 C   0  0  0  0  0  0  0  0  0  0  0  0
    0.0900    6.0000    3.0000 C   0  0  0  0  0  0  0  0  0  0  0  0
    0.8500    8.0000    2.0000 O   0  0  0  0  0  0  0  0  0  0  0  0
    0.1900    7.0000    8.0000 C   0  0  0  0  0  0  0  0  0  0  0  0
   -0.1700    8.0000    1.0000 C   0  0  0  0  0  0  0  0  0  0  0  0
  3 19  3  0  0  0  0
  5  6  1  0  0  0  0
 11  9  1  0  0  0  0
 13  6  1  0  0  0  0
 14 10  3  0  0  0  0
 22 20  1  0  0  0  0
M  END
>  <REMARK>
  A1AFA (TR01225179) crystal pose from 8W30 chain B 505

$$$$
