ligand_crystal.pdb


 24 25  0  0  0  0  0  0  0  0999 V2000
    1.5005  114.2371   40.9317 C   0  0  0  0  0  0  0  0  0  0  0  0
    2.5892  115.0492   40.7316 N   0  0  0  0  0  0  0  0  0  0  0  0
    0.9765  113.9971   42.0084 O   0  0  0  0  0  0  0  0  0  0  0  0
    2.8433  115.3256   39.8215 H   0  0  0  0  0  0  0  0  0  0  0  0
    0.9698  113.6184   39.7137 C   0  0  0  0  0  0  0  0  0  0  0  0
   -0.0479  112.4801   37.4443 C   0  0  0  0  0  0  0  0  0  0  0  0
   -0.0267  114.2599   39.0192 C   0  0  0  0  0  0  0  0  0  0  0  0
    1.4655  112.4069   39.2913 C   0  0  0  0  0  0  0  0  0  0  0  0
    0.9518  111.8403   38.1466 C   0  0  0  0  0  0  0  0  0  0  0  0
   -0.5392  113.6887   37.8789 C   0  0  0  0  0  0  0  0  0  0  0  0
   -0.6389  115.7724   39.5707 Cl  0  0  0  0  0  0  0  0  0  0  0  0
   -0.7055  111.7808   36.0055 Cl  0  0  0  0  0  0  0  0  0  0  0  0
    3.3599  115.4949   41.8741 C   0  0  0  0  0  0  0  0  0  0  0  0
    3.7216  116.9692   41.8287 C   0  0  0  0  0  0  0  0  0  0  0  0
    3.8050  117.4643   40.6725 O   0  0  0  0  0  0  0  0  0  0  0  0
    3.8905  117.5036   42.9588 O   0  0  0  0  0  0  0  0  0  0  0  0
    3.7908  116.9929   43.7381 H   0  0  0  0  0  0  0  0  0  0  0  0
    4.6989  114.7869   42.0020 C   0  0  0  0  0  0  0  0  0  0  0  0
    4.6168  113.6789   42.9981 C   0  0  0  0  0  0  0  0  0  0  0  0
    4.6211  112.3664   42.5895 C   0  0  0  0  0  0  0  0  0  0  0  0
    4.5324  113.9592   44.3414 C   0  0  0  0  0  0  0  0  0  0  0  0
    4.5433  111.3492   43.5127 C   0  0  0  0  0  0  0  0  0  0  0  0
    4.4517  112.9470   45.2679 C   0  0  0  0  0  0  0  0  0  0  0  0
    4.4574  111.6376   44.8541 C   0  0  0  0  0  0  0  0  0  0  0  0
  5  1  1  0  0  0
  6 10  2  0  0  0
  6  9  1  0  0  0
  7 11  1  0  0  0
  7  5  2  0  0  0
  1  3  2  0  0  0
  2  1  1  0  0  0
  2 13  1  0  0  0
 13 14  1  0  0  0
 13 18  1  0  0  0
 14 16  1  0  0  0
 15 14  2  0  0  0
 18 19  1  0  0  0
 19 20  1  0  0  0
 20 22  2  0  0  0
 21 23  1  0  0  0
 21 19  2  0  0  0
 23 24  2  0  0  0
 24 22  1  0  0  0
  8  5  1  0  0  0
  9  8  2  0  0  0
 10  7  1  0  0  0
 12  6  1  0  0  0
  2  4  1  0  0  0
 16 17  1  0  0  0
M  END
> <minimizedAffinity>
-6.90843

$$$$
ligand_crystal.pdb


 24 25  0  0  0  0  0  0  0  0999 V2000
    1.3070  114.4098   41.2517 C   0  0  0  0  0  0  0  0  0  0  0  0
    2.3456  115.2664   40.9827 N   0  0  0  0  0  0  0  0  0  0  0  0
    1.0465  113.9226   42.3408 O   0  0  0  0  0  0  0  0  0  0  0  0
    2.3852  115.7462   40.1240 H   0  0  0  0  0  0  0  0  0  0  0  0
    0.4788  114.0728   40.0905 C   0  0  0  0  0  0  0  0  0  0  0  0
   -1.0419  113.4284   37.9102 C   0  0  0  0  0  0  0  0  0  0  0  0
    0.8144  112.9823   39.3256 C   0  0  0  0  0  0  0  0  0  0  0  0
   -0.6094  114.8537   39.7779 C   0  0  0  0  0  0  0  0  0  0  0  0
   -1.3731  114.5228   38.6813 C   0  0  0  0  0  0  0  0  0  0  0  0
    0.0513  112.6578   38.2294 C   0  0  0  0  0  0  0  0  0  0  0  0
    2.1864  112.0228   39.7300 Cl  0  0  0  0  0  0  0  0  0  0  0  0
   -1.9896  113.0003   36.5281 Cl  0  0  0  0  0  0  0  0  0  0  0  0
    3.3824  115.4564   41.9761 C   0  0  0  0  0  0  0  0  0  0  0  0
    4.0213  116.8336   41.9358 C   0  0  0  0  0  0  0  0  0  0  0  0
    3.9714  117.4140   40.8180 O   0  0  0  0  0  0  0  0  0  0  0  0
    4.5180  117.2143   43.0310 O   0  0  0  0  0  0  0  0  0  0  0  0
    4.4738  116.6584   43.7840 H   0  0  0  0  0  0  0  0  0  0  0  0
    4.5510  114.4989   41.8078 C   0  0  0  0  0  0  0  0  0  0  0  0
    4.5432  113.4630   42.8818 C   0  0  0  0  0  0  0  0  0  0  0  0
    4.4473  113.8246   44.2045 C   0  0  0  0  0  0  0  0  0  0  0  0
    4.6355  112.1297   42.5595 C   0  0  0  0  0  0  0  0  0  0  0  0
    4.4426  112.8648   45.1904 C   0  0  0  0  0  0  0  0  0  0  0  0
    4.6339  111.1668   43.5405 C   0  0  0  0  0  0  0  0  0  0  0  0
    4.5369  111.5336   44.8603 C   0  0  0  0  0  0  0  0  0  0  0  0
  5  1  1  0  0  0
  6 10  2  0  0  0
  6  9  1  0  0  0
  7 11  1  0  0  0
  7  5  2  0  0  0
  1  3  2  0  0  0
  2  1  1  0  0  0
  2 13  1  0  0  0
 13 14  1  0  0  0
 13 18  1  0  0  0
 14 16  1  0  0  0
 15 14  2  0  0  0
 18 19  1  0  0  0
 19 20  1  0  0  0
 20 22  2  0  0  0
 21 23  1  0  0  0
 21 19  2  0  0  0
 23 24  2  0  0  0
 24 22  1  0  0  0
  8  5  1  0  0  0
  9  8  2  0  0  0
 10  7  1  0  0  0
 12  6  1  0  0  0
  2  4  1  0  0  0
 16 17  1  0  0  0
M  END
> <minimizedAffinity>
-6.82822

$$$$
ligand_crystal.pdb


 24 25  0  0  0  0  0  0  0  0999 V2000
    1.1172  115.0000   41.1611 C   0  0  0  0  0  0  0  0  0  0  0  0
    2.4504  115.1620   40.8762 N   0  0  0  0  0  0  0  0  0  0  0  0
    0.5697  115.2983   42.2111 O   0  0  0  0  0  0  0  0  0  0  0  0
    2.7785  115.0572   39.9539 H   0  0  0  0  0  0  0  0  0  0  0  0
    0.3318  114.3986   40.0797 C   0  0  0  0  0  0  0  0  0  0  0  0
   -1.1140  113.2508   38.0614 C   0  0  0  0  0  0  0  0  0  0  0  0
    0.3750  113.0372   39.9013 C   0  0  0  0  0  0  0  0  0  0  0  0
   -0.4241  115.2006   39.2569 C   0  0  0  0  0  0  0  0  0  0  0  0
   -1.1524  114.6172   38.2447 C   0  0  0  0  0  0  0  0  0  0  0  0
   -0.3507  112.4594   38.8871 C   0  0  0  0  0  0  0  0  0  0  0  0
    1.3350  112.0523   40.9380 Cl  0  0  0  0  0  0  0  0  0  0  0  0
   -2.0214  112.5023   36.7932 Cl  0  0  0  0  0  0  0  0  0  0  0  0
    3.3690  115.4887   41.9473 C   0  0  0  0  0  0  0  0  0  0  0  0
    3.8614  116.9250   41.9124 C   0  0  0  0  0  0  0  0  0  0  0  0
    3.8699  117.4600   40.7710 O   0  0  0  0  0  0  0  0  0  0  0  0
    4.1969  117.3926   43.0348 O   0  0  0  0  0  0  0  0  0  0  0  0
    4.1315  116.8599   43.8028 H   0  0  0  0  0  0  0  0  0  0  0  0
    4.6416  114.6581   41.9147 C   0  0  0  0  0  0  0  0  0  0  0  0
    4.5951  113.5808   42.9462 C   0  0  0  0  0  0  0  0  0  0  0  0
    4.6514  112.2568   42.5809 C   0  0  0  0  0  0  0  0  0  0  0  0
    4.4918  113.9014   44.2791 C   0  0  0  0  0  0  0  0  0  0  0  0
    4.6062  111.2681   43.5366 C   0  0  0  0  0  0  0  0  0  0  0  0
    4.4435  112.9177   45.2379 C   0  0  0  0  0  0  0  0  0  0  0  0
    4.5012  111.5966   44.8675 C   0  0  0  0  0  0  0  0  0  0  0  0
  5  1  1  0  0  0
  6 10  2  0  0  0
  6  9  1  0  0  0
  7 11  1  0  0  0
  7  5  2  0  0  0
  1  3  2  0  0  0
  2  1  1  0  0  0
  2 13  1  0  0  0
 13 14  1  0  0  0
 13 18  1  0  0  0
 14 16  1  0  0  0
 15 14  2  0  0  0
 18 19  1  0  0  0
 19 20  1  0  0  0
 20 22  2  0  0  0
 21 23  1  0  0  0
 21 19  2  0  0  0
 23 24  2  0  0  0
 24 22  1  0  0  0
  8  5  1  0  0  0
  9  8  2  0  0  0
 10  7  1  0  0  0
 12  6  1  0  0  0
  2  4  1  0  0  0
 16 17  1  0  0  0
M  END
> <minimizedAffinity>
-6.74447

$$$$
ligand_crystal.pdb


 24 25  0  0  0  0  0  0  0  0999 V2000
    2.0555  113.5121   41.3322 C   0  0  0  0  0  0  0  0  0  0  0  0
    3.1699  114.2918   41.1450 N   0  0  0  0  0  0  0  0  0  0  0  0
    1.2432  113.6322   42.2361 O   0  0  0  0  0  0  0  0  0  0  0  0
    3.6768  114.2413   40.3026 H   0  0  0  0  0  0  0  0  0  0  0  0
    1.8824  112.4483   40.3392 C   0  0  0  0  0  0  0  0  0  0  0  0
    1.5860  110.4483   38.4970 C   0  0  0  0  0  0  0  0  0  0  0  0
    2.4410  111.2161   40.5772 C   0  0  0  0  0  0  0  0  0  0  0  0
    1.1773  112.6991   39.1852 C   0  0  0  0  0  0  0  0  0  0  0  0
    1.0284  111.6878   38.2630 C   0  0  0  0  0  0  0  0  0  0  0  0
    2.2932  110.2104   39.6520 C   0  0  0  0  0  0  0  0  0  0  0  0
    3.3275  110.9259   42.0251 Cl  0  0  0  0  0  0  0  0  0  0  0  0
    1.4100  109.1677   37.3476 Cl  0  0  0  0  0  0  0  0  0  0  0  0
    3.5916  115.1896   42.2004 C   0  0  0  0  0  0  0  0  0  0  0  0
    3.6855  116.6417   41.7655 C   0  0  0  0  0  0  0  0  0  0  0  0
    3.5265  117.4874   42.6866 O   0  0  0  0  0  0  0  0  0  0  0  0
    3.9114  116.8080   40.5357 O   0  0  0  0  0  0  0  0  0  0  0  0
    4.0062  116.0654   39.9721 H   0  0  0  0  0  0  0  0  0  0  0  0
    4.9786  114.8708   42.7347 C   0  0  0  0  0  0  0  0  0  0  0  0
    4.9209  114.5414   44.1890 C   0  0  0  0  0  0  0  0  0  0  0  0
    4.3465  113.3695   44.6206 C   0  0  0  0  0  0  0  0  0  0  0  0
    5.4410  115.4113   45.1179 C   0  0  0  0  0  0  0  0  0  0  0  0
    4.2947  113.0724   45.9631 C   0  0  0  0  0  0  0  0  0  0  0  0
    5.3895  115.1208   46.4604 C   0  0  0  0  0  0  0  0  0  0  0  0
    4.8154  113.9482   46.8861 C   0  0  0  0  0  0  0  0  0  0  0  0
  5  1  1  0  0  0
  6 10  2  0  0  0
  6  9  1  0  0  0
  7 11  1  0  0  0
  7  5  2  0  0  0
  1  3  2  0  0  0
  2  1  1  0  0  0
  2 13  1  0  0  0
 13 14  1  0  0  0
 13 18  1  0  0  0
 14 16  1  0  0  0
 15 14  2  0  0  0
 18 19  1  0  0  0
 19 20  1  0  0  0
 20 22  2  0  0  0
 21 23  1  0  0  0
 21 19  2  0  0  0
 23 24  2  0  0  0
 24 22  1  0  0  0
  8  5  1  0  0  0
  9  8  2  0  0  0
 10  7  1  0  0  0
 12  6  1  0  0  0
  2  4  1  0  0  0
 16 17  1  0  0  0
M  END
> <minimizedAffinity>
-6.69438

$$$$
ligand_crystal.pdb


 24 25  0  0  0  0  0  0  0  0999 V2000
    1.7714  113.9744   41.3286 C   0  0  0  0  0  0  0  0  0  0  0  0
    2.9134  114.7216   41.1785 N   0  0  0  0  0  0  0  0  0  0  0  0
    0.9764  114.0623   42.2514 O   0  0  0  0  0  0  0  0  0  0  0  0
    3.4068  114.7106   40.3266 H   0  0  0  0  0  0  0  0  0  0  0  0
    1.5433  112.9902   40.2669 C   0  0  0  0  0  0  0  0  0  0  0  0
    1.0895  111.1680   38.2781 C   0  0  0  0  0  0  0  0  0  0  0  0
    0.7164  113.3178   39.2200 C   0  0  0  0  0  0  0  0  0  0  0  0
    2.1471  111.7565   40.3377 C   0  0  0  0  0  0  0  0  0  0  0  0
    1.9178  110.8445   39.3323 C   0  0  0  0  0  0  0  0  0  0  0  0
    0.4872  112.4028   38.2203 C   0  0  0  0  0  0  0  0  0  0  0  0
   -0.0365  114.8656   39.1553 Cl  0  0  0  0  0  0  0  0  0  0  0  0
    0.7893  110.0330   37.0080 Cl  0  0  0  0  0  0  0  0  0  0  0  0
    3.3842  115.5262   42.2869 C   0  0  0  0  0  0  0  0  0  0  0  0
    3.6893  116.9655   41.9102 C   0  0  0  0  0  0  0  0  0  0  0  0
    3.7539  117.1922   40.6719 O   0  0  0  0  0  0  0  0  0  0  0  0
    3.8373  117.7449   42.8908 O   0  0  0  0  0  0  0  0  0  0  0  0
    3.7571  117.4182   43.7653 H   0  0  0  0  0  0  0  0  0  0  0  0
    4.6848  115.0141   42.8843 C   0  0  0  0  0  0  0  0  0  0  0  0
    4.6117  115.0008   44.3747 C   0  0  0  0  0  0  0  0  0  0  0  0
    5.6909  115.3868   45.1335 C   0  0  0  0  0  0  0  0  0  0  0  0
    3.4603  114.5976   45.0086 C   0  0  0  0  0  0  0  0  0  0  0  0
    5.6180  115.3706   46.5073 C   0  0  0  0  0  0  0  0  0  0  0  0
    3.3828  114.5768   46.3808 C   0  0  0  0  0  0  0  0  0  0  0  0
    4.4637  114.9645   47.1340 C   0  0  0  0  0  0  0  0  0  0  0  0
  5  1  1  0  0  0
  6 10  2  0  0  0
  6  9  1  0  0  0
  7 11  1  0  0  0
  7  5  2  0  0  0
  1  3  2  0  0  0
  2  1  1  0  0  0
  2 13  1  0  0  0
 13 14  1  0  0  0
 13 18  1  0  0  0
 14 16  1  0  0  0
 15 14  2  0  0  0
 18 19  1  0  0  0
 19 20  1  0  0  0
 20 22  2  0  0  0
 21 23  1  0  0  0
 21 19  2  0  0  0
 23 24  2  0  0  0
 24 22  1  0  0  0
  8  5  1  0  0  0
  9  8  2  0  0  0
 10  7  1  0  0  0
 12  6  1  0  0  0
  2  4  1  0  0  0
 16 17  1  0  0  0
M  END
> <minimizedAffinity>
-6.66189

$$$$
ligand_crystal.pdb


 24 25  0  0  0  0  0  0  0  0999 V2000
    3.3425  112.8903   41.9705 C   0  0  0  0  0  0  0  0  0  0  0  0
    3.5493  114.1122   42.5614 N   0  0  0  0  0  0  0  0  0  0  0  0
    2.9644  112.7061   40.8240 O   0  0  0  0  0  0  0  0  0  0  0  0
    4.0153  114.1741   43.4265 H   0  0  0  0  0  0  0  0  0  0  0  0
    3.5994  111.7406   42.8423 C   0  0  0  0  0  0  0  0  0  0  0  0
    4.0516  109.6012   44.4855 C   0  0  0  0  0  0  0  0  0  0  0  0
    2.5448  111.1485   43.4937 C   0  0  0  0  0  0  0  0  0  0  0  0
    4.8851  111.2797   43.0040 C   0  0  0  0  0  0  0  0  0  0  0  0
    5.1065  110.2006   43.8297 C   0  0  0  0  0  0  0  0  0  0  0  0
    2.7709  110.0737   44.3201 C   0  0  0  0  0  0  0  0  0  0  0  0
    0.9435  111.7471   43.2836 Cl  0  0  0  0  0  0  0  0  0  0  0  0
    4.3129  108.2460   45.5279 Cl  0  0  0  0  0  0  0  0  0  0  0  0
    3.0745  115.3091   41.8984 C   0  0  0  0  0  0  0  0  0  0  0  0
    3.9175  116.5399   42.1830 C   0  0  0  0  0  0  0  0  0  0  0  0
    3.3060  117.4894   42.7429 O   0  0  0  0  0  0  0  0  0  0  0  0
    5.1220  116.4468   41.8201 O   0  0  0  0  0  0  0  0  0  0  0  0
    5.4287  115.6618   41.4107 H   0  0  0  0  0  0  0  0  0  0  0  0
    1.6725  115.7110   42.3269 C   0  0  0  0  0  0  0  0  0  0  0  0
    0.6997  115.4979   41.2157 C   0  0  0  0  0  0  0  0  0  0  0  0
    1.0071  115.8791   39.9313 C   0  0  0  0  0  0  0  0  0  0  0  0
   -0.5217  114.9182   41.4654 C   0  0  0  0  0  0  0  0  0  0  0  0
    0.1051  115.6817   38.9113 C   0  0  0  0  0  0  0  0  0  0  0  0
   -1.4278  114.7210   40.4507 C   0  0  0  0  0  0  0  0  0  0  0  0
   -1.1150  115.1029   39.1692 C   0  0  0  0  0  0  0  0  0  0  0  0
  5  1  1  0  0  0
  6 10  2  0  0  0
  6  9  1  0  0  0
  7 11  1  0  0  0
  7  5  2  0  0  0
  1  3  2  0  0  0
  2  1  1  0  0  0
  2 13  1  0  0  0
 13 14  1  0  0  0
 13 18  1  0  0  0
 14 16  1  0  0  0
 15 14  2  0  0  0
 18 19  1  0  0  0
 19 20  1  0  0  0
 20 22  2  0  0  0
 21 23  1  0  0  0
 21 19  2  0  0  0
 23 24  2  0  0  0
 24 22  1  0  0  0
  8  5  1  0  0  0
  9  8  2  0  0  0
 10  7  1  0  0  0
 12  6  1  0  0  0
  2  4  1  0  0  0
 16 17  1  0  0  0
M  END
> <minimizedAffinity>
-6.63357

$$$$
ligand_crystal.pdb


 24 25  0  0  0  0  0  0  0  0999 V2000
    4.4712  114.2476   43.4535 C   0  0  0  0  0  0  0  0  0  0  0  0
    3.3084  114.9568   43.2809 N   0  0  0  0  0  0  0  0  0  0  0  0
    5.4233  114.2396   42.6889 O   0  0  0  0  0  0  0  0  0  0  0  0
    2.6644  115.0443   44.0205 H   0  0  0  0  0  0  0  0  0  0  0  0
    4.5137  113.4344   44.6721 C   0  0  0  0  0  0  0  0  0  0  0  0
    4.5774  111.8931   46.9308 C   0  0  0  0  0  0  0  0  0  0  0  0
    4.4233  112.0678   44.5657 C   0  0  0  0  0  0  0  0  0  0  0  0
    4.6317  114.0466   45.8981 C   0  0  0  0  0  0  0  0  0  0  0  0
    4.6666  113.2657   47.0313 C   0  0  0  0  0  0  0  0  0  0  0  0
    4.4547  111.2923   45.7001 C   0  0  0  0  0  0  0  0  0  0  0  0
    4.2675  111.3222   43.0209 Cl  0  0  0  0  0  0  0  0  0  0  0  0
    4.6176  110.8979   48.3449 Cl  0  0  0  0  0  0  0  0  0  0  0  0
    3.0395  115.5750   41.9990 C   0  0  0  0  0  0  0  0  0  0  0  0
    3.6144  116.9742   41.8635 C   0  0  0  0  0  0  0  0  0  0  0  0
    3.8397  117.3477   40.6808 O   0  0  0  0  0  0  0  0  0  0  0  0
    3.7898  117.5781   42.9569 O   0  0  0  0  0  0  0  0  0  0  0  0
    3.5692  117.1580   43.7649 H   0  0  0  0  0  0  0  0  0  0  0  0
    1.5553  115.7542   41.7239 C   0  0  0  0  0  0  0  0  0  0  0  0
    1.1870  115.1575   40.4067 C   0  0  0  0  0  0  0  0  0  0  0  0
    0.8854  115.9605   39.3326 C   0  0  0  0  0  0  0  0  0  0  0  0
    1.1419  113.7921   40.2526 C   0  0  0  0  0  0  0  0  0  0  0  0
    0.5447  115.4044   38.1211 C   0  0  0  0  0  0  0  0  0  0  0  0
    0.7996  113.2311   39.0453 C   0  0  0  0  0  0  0  0  0  0  0  0
    0.5002  114.0381   37.9752 C   0  0  0  0  0  0  0  0  0  0  0  0
  5  1  1  0  0  0
  6 10  2  0  0  0
  6  9  1  0  0  0
  7 11  1  0  0  0
  7  5  2  0  0  0
  1  3  2  0  0  0
  2  1  1  0  0  0
  2 13  1  0  0  0
 13 14  1  0  0  0
 13 18  1  0  0  0
 14 16  1  0  0  0
 15 14  2  0  0  0
 18 19  1  0  0  0
 19 20  1  0  0  0
 20 22  2  0  0  0
 21 23  1  0  0  0
 21 19  2  0  0  0
 23 24  2  0  0  0
 24 22  1  0  0  0
  8  5  1  0  0  0
  9  8  2  0  0  0
 10  7  1  0  0  0
 12  6  1  0  0  0
  2  4  1  0  0  0
 16 17  1  0  0  0
M  END
> <minimizedAffinity>
-6.47367

$$$$
ligand_crystal.pdb


 24 25  0  0  0  0  0  0  0  0999 V2000
    4.1335  113.6846   42.6233 C   0  0  0  0  0  0  0  0  0  0  0  0
    2.9550  114.3853   42.6944 N   0  0  0  0  0  0  0  0  0  0  0  0
    4.9907  113.8139   41.7631 O   0  0  0  0  0  0  0  0  0  0  0  0
    2.4005  114.3453   43.5069 H   0  0  0  0  0  0  0  0  0  0  0  0
    4.3209  112.6978   43.6905 C   0  0  0  0  0  0  0  0  0  0  0  0
    4.6842  110.8787   45.7006 C   0  0  0  0  0  0  0  0  0  0  0  0
    4.4343  113.1323   44.9886 C   0  0  0  0  0  0  0  0  0  0  0  0
    4.3912  111.3599   43.3791 C   0  0  0  0  0  0  0  0  0  0  0  0
    4.5708  110.4486   44.3952 C   0  0  0  0  0  0  0  0  0  0  0  0
    4.6175  112.2193   45.9996 C   0  0  0  0  0  0  0  0  0  0  0  0
    4.3520  114.8132   45.3555 Cl  0  0  0  0  0  0  0  0  0  0  0  0
    4.9124  109.7470   46.9885 Cl  0  0  0  0  0  0  0  0  0  0  0  0
    2.5363  115.1839   41.5610 C   0  0  0  0  0  0  0  0  0  0  0  0
    3.2167  116.5396   41.4848 C   0  0  0  0  0  0  0  0  0  0  0  0
    3.0804  117.2648   42.5068 O   0  0  0  0  0  0  0  0  0  0  0  0
    3.8302  116.7593   40.4048 O   0  0  0  0  0  0  0  0  0  0  0  0
    3.8386  116.1092   39.7301 H   0  0  0  0  0  0  0  0  0  0  0  0
    1.0523  115.5128   41.5799 C   0  0  0  0  0  0  0  0  0  0  0  0
    0.3825  115.0000   40.3490 C   0  0  0  0  0  0  0  0  0  0  0  0
    0.9154  113.9443   39.6483 C   0  0  0  0  0  0  0  0  0  0  0  0
   -0.7786  115.5820   39.8981 C   0  0  0  0  0  0  0  0  0  0  0  0
    0.2942  113.4772   38.5130 C   0  0  0  0  0  0  0  0  0  0  0  0
   -1.4021  115.1211   38.7630 C   0  0  0  0  0  0  0  0  0  0  0  0
   -0.8657  114.0655   38.0674 C   0  0  0  0  0  0  0  0  0  0  0  0
  5  1  1  0  0  0
  6 10  2  0  0  0
  6  9  1  0  0  0
  7 11  1  0  0  0
  7  5  2  0  0  0
  1  3  2  0  0  0
  2  1  1  0  0  0
  2 13  1  0  0  0
 13 14  1  0  0  0
 13 18  1  0  0  0
 14 16  1  0  0  0
 15 14  2  0  0  0
 18 19  1  0  0  0
 19 20  1  0  0  0
 20 22  2  0  0  0
 21 23  1  0  0  0
 21 19  2  0  0  0
 23 24  2  0  0  0
 24 22  1  0  0  0
  8  5  1  0  0  0
  9  8  2  0  0  0
 10  7  1  0  0  0
 12  6  1  0  0  0
  2  4  1  0  0  0
 16 17  1  0  0  0
M  END
> <minimizedAffinity>
-6.32317

$$$$
ligand_crystal.pdb


 24 25  0  0  0  0  0  0  0  0999 V2000
    1.1237  115.3196   42.7090 C   0  0  0  0  0  0  0  0  0  0  0  0
    2.3339  114.9657   42.1659 N   0  0  0  0  0  0  0  0  0  0  0  0
    0.9330  116.2375   43.4916 O   0  0  0  0  0  0  0  0  0  0  0  0
    2.3758  114.3282   41.4168 H   0  0  0  0  0  0  0  0  0  0  0  0
   -0.0015  114.4795   42.2896 C   0  0  0  0  0  0  0  0  0  0  0  0
   -2.0863  112.8855   41.5186 C   0  0  0  0  0  0  0  0  0  0  0  0
   -0.2143  113.2820   42.9281 C   0  0  0  0  0  0  0  0  0  0  0  0
   -0.8170  114.8931   41.2622 C   0  0  0  0  0  0  0  0  0  0  0  0
   -1.8668  114.0883   40.8806 C   0  0  0  0  0  0  0  0  0  0  0  0
   -1.2613  112.4799   42.5413 C   0  0  0  0  0  0  0  0  0  0  0  0
    0.8244  112.7793   44.2067 Cl  0  0  0  0  0  0  0  0  0  0  0  0
   -3.3994  111.8619   41.0499 Cl  0  0  0  0  0  0  0  0  0  0  0  0
    3.5484  115.5403   42.7070 C   0  0  0  0  0  0  0  0  0  0  0  0
    3.9360  116.8620   42.0672 C   0  0  0  0  0  0  0  0  0  0  0  0
    4.0605  116.8332   40.8132 O   0  0  0  0  0  0  0  0  0  0  0  0
    4.0817  117.8159   42.8796 O   0  0  0  0  0  0  0  0  0  0  0  0
    3.9513  117.6744   43.7966 H   0  0  0  0  0  0  0  0  0  0  0  0
    4.7679  114.6561   42.5029 C   0  0  0  0  0  0  0  0  0  0  0  0
    4.6619  113.4136   43.3225 C   0  0  0  0  0  0  0  0  0  0  0  0
    4.4978  113.4841   44.6854 C   0  0  0  0  0  0  0  0  0  0  0  0
    4.7306  112.1789   42.7217 C   0  0  0  0  0  0  0  0  0  0  0  0
    4.4027  112.3348   45.4359 C   0  0  0  0  0  0  0  0  0  0  0  0
    4.6388  111.0275   43.4668 C   0  0  0  0  0  0  0  0  0  0  0  0
    4.4740  111.1038   44.8281 C   0  0  0  0  0  0  0  0  0  0  0  0
  5  1  1  0  0  0
  6 10  2  0  0  0
  6  9  1  0  0  0
  7 11  1  0  0  0
  7  5  2  0  0  0
  1  3  2  0  0  0
  2  1  1  0  0  0
  2 13  1  0  0  0
 13 14  1  0  0  0
 13 18  1  0  0  0
 14 16  1  0  0  0
 15 14  2  0  0  0
 18 19  1  0  0  0
 19 20  1  0  0  0
 20 22  2  0  0  0
 21 23  1  0  0  0
 21 19  2  0  0  0
 23 24  2  0  0  0
 24 22  1  0  0  0
  8  5  1  0  0  0
  9  8  2  0  0  0
 10  7  1  0  0  0
 12  6  1  0  0  0
  2  4  1  0  0  0
 16 17  1  0  0  0
M  END
> <minimizedAffinity>
-6.31283

$$$$
ligand_crystal.pdb


 24 25  0  0  0  0  0  0  0  0999 V2000
    0.8806  114.9025   40.3625 C   0  0  0  0  0  0  0  0  0  0  0  0
    2.1618  115.1296   40.8004 N   0  0  0  0  0  0  0  0  0  0  0  0
   -0.1161  115.5078   40.7251 O   0  0  0  0  0  0  0  0  0  0  0  0
    2.9266  114.7186   40.3362 H   0  0  0  0  0  0  0  0  0  0  0  0
    0.7540  113.8175   39.3854 C   0  0  0  0  0  0  0  0  0  0  0  0
    0.5305  111.7720   37.5833 C   0  0  0  0  0  0  0  0  0  0  0  0
    0.6923  112.5203   39.8332 C   0  0  0  0  0  0  0  0  0  0  0  0
    0.7100  114.1096   38.0421 C   0  0  0  0  0  0  0  0  0  0  0  0
    0.5941  113.0763   37.1398 C   0  0  0  0  0  0  0  0  0  0  0  0
    0.5805  111.4916   38.9286 C   0  0  0  0  0  0  0  0  0  0  0  0
    0.7577  112.1763   41.5196 Cl  0  0  0  0  0  0  0  0  0  0  0  0
    0.3870  110.4623   36.4627 Cl  0  0  0  0  0  0  0  0  0  0  0  0
    2.3761  115.9804   41.9528 C   0  0  0  0  0  0  0  0  0  0  0  0
    3.5276  116.9564   41.7854 C   0  0  0  0  0  0  0  0  0  0  0  0
    4.0120  117.0180   40.6232 O   0  0  0  0  0  0  0  0  0  0  0  0
    3.8463  117.5778   42.8358 O   0  0  0  0  0  0  0  0  0  0  0  0
    3.3822  117.4179   43.6338 H   0  0  0  0  0  0  0  0  0  0  0  0
    2.7277  115.2022   43.2104 C   0  0  0  0  0  0  0  0  0  0  0  0
    1.5106  114.9620   44.0397 C   0  0  0  0  0  0  0  0  0  0  0  0
    0.5159  115.9075   44.1161 C   0  0  0  0  0  0  0  0  0  0  0  0
    1.3711  113.7885   44.7423 C   0  0  0  0  0  0  0  0  0  0  0  0
   -0.6031  115.6809   44.8841 C   0  0  0  0  0  0  0  0  0  0  0  0
    0.2566  113.5579   45.5131 C   0  0  0  0  0  0  0  0  0  0  0  0
   -0.7346  114.5056   45.5851 C   0  0  0  0  0  0  0  0  0  0  0  0
  5  1  1  0  0  0
  6 10  2  0  0  0
  6  9  1  0  0  0
  7 11  1  0  0  0
  7  5  2  0  0  0
  1  3  2  0  0  0
  2  1  1  0  0  0
  2 13  1  0  0  0
 13 14  1  0  0  0
 13 18  1  0  0  0
 14 16  1  0  0  0
 15 14  2  0  0  0
 18 19  1  0  0  0
 19 20  1  0  0  0
 20 22  2  0  0  0
 21 23  1  0  0  0
 21 19  2  0  0  0
 23 24  2  0  0  0
 24 22  1  0  0  0
  8  5  1  0  0  0
  9  8  2  0  0  0
 10  7  1  0  0  0
 12  6  1  0  0  0
  2  4  1  0  0  0
 16 17  1  0  0  0
M  END
> <minimizedAffinity>
-6.27560

$$$$
ligand_crystal.pdb


 24 25  0  0  0  0  0  0  0  0999 V2000
    2.7408  116.1570   42.6444 C   0  0  0  0  0  0  0  0  0  0  0  0
    3.2944  115.0739   43.2810 N   0  0  0  0  0  0  0  0  0  0  0  0
    3.0750  117.3219   42.7950 O   0  0  0  0  0  0  0  0  0  0  0  0
    3.0872  114.1599   42.9794 H   0  0  0  0  0  0  0  0  0  0  0  0
    1.6469  115.8301   41.7255 C   0  0  0  0  0  0  0  0  0  0  0  0
   -0.4073  115.2004   40.0328 C   0  0  0  0  0  0  0  0  0  0  0  0
    0.4537  115.3848   42.2402 C   0  0  0  0  0  0  0  0  0  0  0  0
    1.8318  115.9621   40.3690 C   0  0  0  0  0  0  0  0  0  0  0  0
    0.7933  115.6469   39.5219 C   0  0  0  0  0  0  0  0  0  0  0  0
   -0.5791  115.0676   41.3906 C   0  0  0  0  0  0  0  0  0  0  0  0
    0.2463  115.2186   43.9420 Cl  0  0  0  0  0  0  0  0  0  0  0  0
   -1.7212  114.7982   38.9822 Cl  0  0  0  0  0  0  0  0  0  0  0  0
    4.1867  115.2905   44.4011 C   0  0  0  0  0  0  0  0  0  0  0  0
    5.6558  115.3088   44.0166 C   0  0  0  0  0  0  0  0  0  0  0  0
    5.9251  114.7748   42.9070 O   0  0  0  0  0  0  0  0  0  0  0  0
    6.4132  115.8586   44.8623 O   0  0  0  0  0  0  0  0  0  0  0  0
    6.0544  116.2137   45.6517 H   0  0  0  0  0  0  0  0  0  0  0  0
    4.0918  114.2015   45.4573 C   0  0  0  0  0  0  0  0  0  0  0  0
    3.5818  114.7578   46.7446 C   0  0  0  0  0  0  0  0  0  0  0  0
    2.2563  114.6331   47.0865 C   0  0  0  0  0  0  0  0  0  0  0  0
    4.4347  115.4071   47.6054 C   0  0  0  0  0  0  0  0  0  0  0  0
    1.7916  115.1499   48.2740 C   0  0  0  0  0  0  0  0  0  0  0  0
    3.9754  115.9277   48.7918 C   0  0  0  0  0  0  0  0  0  0  0  0
    2.6504  115.7993   49.1289 C   0  0  0  0  0  0  0  0  0  0  0  0
  5  1  1  0  0  0
  6 10  2  0  0  0
  6  9  1  0  0  0
  7 11  1  0  0  0
  7  5  2  0  0  0
  1  3  2  0  0  0
  2  1  1  0  0  0
  2 13  1  0  0  0
 13 14  1  0  0  0
 13 18  1  0  0  0
 14 16  1  0  0  0
 15 14  2  0  0  0
 18 19  1  0  0  0
 19 20  1  0  0  0
 20 22  2  0  0  0
 21 23  1  0  0  0
 21 19  2  0  0  0
 23 24  2  0  0  0
 24 22  1  0  0  0
  8  5  1  0  0  0
  9  8  2  0  0  0
 10  7  1  0  0  0
 12  6  1  0  0  0
  2  4  1  0  0  0
 16 17  1  0  0  0
M  END
> <minimizedAffinity>
-6.22411

$$$$
ligand_crystal.pdb


 24 25  0  0  0  0  0  0  0  0999 V2000
    4.0444  114.3804   44.8377 C   0  0  0  0  0  0  0  0  0  0  0  0
    3.6337  115.2853   43.8905 N   0  0  0  0  0  0  0  0  0  0  0  0
    4.3287  113.2106   44.6323 O   0  0  0  0  0  0  0  0  0  0  0  0
    3.5896  116.2451   44.1052 H   0  0  0  0  0  0  0  0  0  0  0  0
    4.1163  114.9151   46.2004 C   0  0  0  0  0  0  0  0  0  0  0  0
    4.2183  115.9148   48.7443 C   0  0  0  0  0  0  0  0  0  0  0  0
    3.0295  114.7776   47.0292 C   0  0  0  0  0  0  0  0  0  0  0  0
    5.2589  115.5524   46.6247 C   0  0  0  0  0  0  0  0  0  0  0  0
    5.3058  116.0508   47.9072 C   0  0  0  0  0  0  0  0  0  0  0  0
    3.0793  115.2801   48.3076 C   0  0  0  0  0  0  0  0  0  0  0  0
    1.6053  113.9834   46.4747 Cl  0  0  0  0  0  0  0  0  0  0  0  0
    4.2603  116.5371   50.3576 Cl  0  0  0  0  0  0  0  0  0  0  0  0
    3.2660  114.8126   42.5717 C   0  0  0  0  0  0  0  0  0  0  0  0
    4.4548  114.5507   41.6637 C   0  0  0  0  0  0  0  0  0  0  0  0
    5.3364  115.4517   41.6632 O   0  0  0  0  0  0  0  0  0  0  0  0
    4.4012  113.4618   41.0291 O   0  0  0  0  0  0  0  0  0  0  0  0
    3.6666  112.8907   41.1398 H   0  0  0  0  0  0  0  0  0  0  0  0
    2.4182  115.8084   41.7971 C   0  0  0  0  0  0  0  0  0  0  0  0
    0.9994  115.3514   41.7269 C   0  0  0  0  0  0  0  0  0  0  0  0
    0.3352  115.3075   40.5243 C   0  0  0  0  0  0  0  0  0  0  0  0
    0.3366  114.9704   42.8696 C   0  0  0  0  0  0  0  0  0  0  0  0
   -0.9736  114.8870   40.4663 C   0  0  0  0  0  0  0  0  0  0  0  0
   -0.9718  114.5520   42.8179 C   0  0  0  0  0  0  0  0  0  0  0  0
   -1.6303  114.5091   41.6136 C   0  0  0  0  0  0  0  0  0  0  0  0
  5  1  1  0  0  0
  6 10  2  0  0  0
  6  9  1  0  0  0
  7 11  1  0  0  0
  7  5  2  0  0  0
  1  3  2  0  0  0
  2  1  1  0  0  0
  2 13  1  0  0  0
 13 14  1  0  0  0
 13 18  1  0  0  0
 14 16  1  0  0  0
 15 14  2  0  0  0
 18 19  1  0  0  0
 19 20  1  0  0  0
 20 22  2  0  0  0
 21 23  1  0  0  0
 21 19  2  0  0  0
 23 24  2  0  0  0
 24 22  1  0  0  0
  8  5  1  0  0  0
  9  8  2  0  0  0
 10  7  1  0  0  0
 12  6  1  0  0  0
  2  4  1  0  0  0
 16 17  1  0  0  0
M  END
> <minimizedAffinity>
-5.99754

$$$$
ligand_crystal.pdb


 24 25  0  0  0  0  0  0  0  0999 V2000
    3.0355  113.2705   43.0042 C   0  0  0  0  0  0  0  0  0  0  0  0
    3.3946  114.5944   43.0631 N   0  0  0  0  0  0  0  0  0  0  0  0
    2.5085  112.7150   42.0529 O   0  0  0  0  0  0  0  0  0  0  0  0
    3.9660  114.9229   43.7944 H   0  0  0  0  0  0  0  0  0  0  0  0
    3.3195  112.5074   44.2227 C   0  0  0  0  0  0  0  0  0  0  0  0
    3.8607  111.0589   46.4789 C   0  0  0  0  0  0  0  0  0  0  0  0
    4.2753  111.5215   44.1850 C   0  0  0  0  0  0  0  0  0  0  0  0
    2.6224  112.7791   45.3769 C   0  0  0  0  0  0  0  0  0  0  0  0
    2.9013  112.0492   46.5103 C   0  0  0  0  0  0  0  0  0  0  0  0
    4.5478  110.7926   45.3180 C   0  0  0  0  0  0  0  0  0  0  0  0
    5.1305  111.1919   42.7267 Cl  0  0  0  0  0  0  0  0  0  0  0  0
    4.2215  110.1313   47.8935 Cl  0  0  0  0  0  0  0  0  0  0  0  0
    2.9235  115.5023   42.0377 C   0  0  0  0  0  0  0  0  0  0  0  0
    3.7632  116.7608   41.9041 C   0  0  0  0  0  0  0  0  0  0  0  0
    3.7526  117.2921   40.7610 O   0  0  0  0  0  0  0  0  0  0  0  0
    4.3609  117.1078   42.9593 O   0  0  0  0  0  0  0  0  0  0  0  0
    4.2659  116.5991   43.7404 H   0  0  0  0  0  0  0  0  0  0  0  0
    1.5180  116.0187   42.2994 C   0  0  0  0  0  0  0  0  0  0  0  0
    0.5512  115.4343   41.3245 C   0  0  0  0  0  0  0  0  0  0  0  0
    0.7515  115.5689   39.9713 C   0  0  0  0  0  0  0  0  0  0  0  0
   -0.5575  114.7545   41.7705 C   0  0  0  0  0  0  0  0  0  0  0  0
   -0.1446  115.0295   39.0774 C   0  0  0  0  0  0  0  0  0  0  0  0
   -1.4574  114.2159   40.8820 C   0  0  0  0  0  0  0  0  0  0  0  0
   -1.2518  114.3525   39.5311 C   0  0  0  0  0  0  0  0  0  0  0  0
  5  1  1  0  0  0
  6 10  2  0  0  0
  6  9  1  0  0  0
  7 11  1  0  0  0
  7  5  2  0  0  0
  1  3  2  0  0  0
  2  1  1  0  0  0
  2 13  1  0  0  0
 13 14  1  0  0  0
 13 18  1  0  0  0
 14 16  1  0  0  0
 15 14  2  0  0  0
 18 19  1  0  0  0
 19 20  1  0  0  0
 20 22  2  0  0  0
 21 23  1  0  0  0
 21 19  2  0  0  0
 23 24  2  0  0  0
 24 22  1  0  0  0
  8  5  1  0  0  0
  9  8  2  0  0  0
 10  7  1  0  0  0
 12  6  1  0  0  0
  2  4  1  0  0  0
 16 17  1  0  0  0
M  END
> <minimizedAffinity>
-5.95288

$$$$
ligand_crystal.pdb


 24 25  0  0  0  0  0  0  0  0999 V2000
    4.1638  112.4589   43.1816 C   0  0  0  0  0  0  0  0  0  0  0  0
    3.9660  113.6234   43.8813 N   0  0  0  0  0  0  0  0  0  0  0  0
    5.1486  112.1856   42.5131 O   0  0  0  0  0  0  0  0  0  0  0  0
    3.2282  113.6955   44.5291 H   0  0  0  0  0  0  0  0  0  0  0  0
    3.0579  111.5010   43.2677 C   0  0  0  0  0  0  0  0  0  0  0  0
    1.0152  109.6896   43.4338 C   0  0  0  0  0  0  0  0  0  0  0  0
    3.2401  110.3327   43.9668 C   0  0  0  0  0  0  0  0  0  0  0  0
    1.8644  111.7776   42.6427 C   0  0  0  0  0  0  0  0  0  0  0  0
    0.8386  110.8639   42.7324 C   0  0  0  0  0  0  0  0  0  0  0  0
    2.2146  109.4214   44.0505 C   0  0  0  0  0  0  0  0  0  0  0  0
    4.7459  110.0023   44.7349 Cl  0  0  0  0  0  0  0  0  0  0  0  0
   -0.2627  108.5302   43.5544 Cl  0  0  0  0  0  0  0  0  0  0  0  0
    4.8546  114.7447   43.6560 C   0  0  0  0  0  0  0  0  0  0  0  0
    5.6931  115.1122   44.8678 C   0  0  0  0  0  0  0  0  0  0  0  0
    5.4269  114.4676   45.9179 O   0  0  0  0  0  0  0  0  0  0  0  0
    6.5477  116.0165   44.6605 O   0  0  0  0  0  0  0  0  0  0  0  0
    6.6237  116.4033   43.8105 H   0  0  0  0  0  0  0  0  0  0  0  0
    4.1177  116.0285   43.3102 C   0  0  0  0  0  0  0  0  0  0  0  0
    2.7765  115.7269   42.7298 C   0  0  0  0  0  0  0  0  0  0  0  0
    1.6603  115.6782   43.5306 C   0  0  0  0  0  0  0  0  0  0  0  0
    2.6416  115.4903   41.3822 C   0  0  0  0  0  0  0  0  0  0  0  0
    0.4267  115.3978   42.9898 C   0  0  0  0  0  0  0  0  0  0  0  0
    1.4120  115.2071   40.8370 C   0  0  0  0  0  0  0  0  0  0  0  0
    0.3001  115.1606   41.6416 C   0  0  0  0  0  0  0  0  0  0  0  0
  5  1  1  0  0  0
  6 10  2  0  0  0
  6  9  1  0  0  0
  7 11  1  0  0  0
  7  5  2  0  0  0
  1  3  2  0  0  0
  2  1  1  0  0  0
  2 13  1  0  0  0
 13 14  1  0  0  0
 13 18  1  0  0  0
 14 16  1  0  0  0
 15 14  2  0  0  0
 18 19  1  0  0  0
 19 20  1  0  0  0
 20 22  2  0  0  0
 21 23  1  0  0  0
 21 19  2  0  0  0
 23 24  2  0  0  0
 24 22  1  0  0  0
  8  5  1  0  0  0
  9  8  2  0  0  0
 10  7  1  0  0  0
 12  6  1  0  0  0
  2  4  1  0  0  0
 16 17  1  0  0  0
M  END
> <minimizedAffinity>
-5.85331

$$$$
ligand_crystal.pdb


 24 25  0  0  0  0  0  0  0  0999 V2000
    3.3859  113.4361   41.8262 C   0  0  0  0  0  0  0  0  0  0  0  0
    3.2733  112.4453   42.7699 N   0  0  0  0  0  0  0  0  0  0  0  0
    4.4240  113.9780   41.4798 O   0  0  0  0  0  0  0  0  0  0  0  0
    2.4312  111.9448   42.8678 H   0  0  0  0  0  0  0  0  0  0  0  0
    2.1158  113.8515   41.2244 C   0  0  0  0  0  0  0  0  0  0  0  0
   -0.2624  114.6420   40.1285 C   0  0  0  0  0  0  0  0  0  0  0  0
    1.4747  114.9613   41.7187 C   0  0  0  0  0  0  0  0  0  0  0  0
    1.5810  113.1236   40.1871 C   0  0  0  0  0  0  0  0  0  0  0  0
    0.3854  113.5280   39.6372 C   0  0  0  0  0  0  0  0  0  0  0  0
    0.2793  115.3592   41.1692 C   0  0  0  0  0  0  0  0  0  0  0  0
    2.1579  115.8535   43.0239 Cl  0  0  0  0  0  0  0  0  0  0  0  0
   -1.7661  115.1621   39.4503 Cl  0  0  0  0  0  0  0  0  0  0  0  0
    4.4068  112.1445   43.6198 C   0  0  0  0  0  0  0  0  0  0  0  0
    5.0005  110.7672   43.3807 C   0  0  0  0  0  0  0  0  0  0  0  0
    4.7271  109.9067   44.2604 O   0  0  0  0  0  0  0  0  0  0  0  0
    5.6902  110.6679   42.3292 O   0  0  0  0  0  0  0  0  0  0  0  0
    5.8010  111.4112   41.7696 H   0  0  0  0  0  0  0  0  0  0  0  0
    4.0592  112.1482   45.0996 C   0  0  0  0  0  0  0  0  0  0  0  0
    4.5915  113.3739   45.7635 C   0  0  0  0  0  0  0  0  0  0  0  0
    5.0766  114.4215   45.0174 C   0  0  0  0  0  0  0  0  0  0  0  0
    4.6058  113.4686   47.1350 C   0  0  0  0  0  0  0  0  0  0  0  0
    5.5679  115.5483   45.6355 C   0  0  0  0  0  0  0  0  0  0  0  0
    5.0979  114.5909   47.7579 C   0  0  0  0  0  0  0  0  0  0  0  0
    5.5804  115.6349   47.0075 C   0  0  0  0  0  0  0  0  0  0  0  0
  5  1  1  0  0  0
  6 10  2  0  0  0
  6  9  1  0  0  0
  7 11  1  0  0  0
  7  5  2  0  0  0
  1  3  2  0  0  0
  2  1  1  0  0  0
  2 13  1  0  0  0
 13 14  1  0  0  0
 13 18  1  0  0  0
 14 16  1  0  0  0
 15 14  2  0  0  0
 18 19  1  0  0  0
 19 20  1  0  0  0
 20 22  2  0  0  0
 21 23  1  0  0  0
 21 19  2  0  0  0
 23 24  2  0  0  0
 24 22  1  0  0  0
  8  5  1  0  0  0
  9  8  2  0  0  0
 10  7  1  0  0  0
 12  6  1  0  0  0
  2  4  1  0  0  0
 16 17  1  0  0  0
M  END
> <minimizedAffinity>
-5.81301

$$$$
ligand_crystal.pdb


 24 25  0  0  0  0  0  0  0  0999 V2000
    0.0830  112.1451   38.4384 C   0  0  0  0  0  0  0  0  0  0  0  0
    0.8630  113.2578   38.2425 N   0  0  0  0  0  0  0  0  0  0  0  0
   -0.9570  112.1051   39.0773 O   0  0  0  0  0  0  0  0  0  0  0  0
    1.5891  113.2458   37.5778 H   0  0  0  0  0  0  0  0  0  0  0  0
    0.5985  110.9224   37.8160 C   0  0  0  0  0  0  0  0  0  0  0  0
    1.5865  108.6422   36.6733 C   0  0  0  0  0  0  0  0  0  0  0  0
    1.4990  110.1499   38.5083 C   0  0  0  0  0  0  0  0  0  0  0  0
    0.1850  110.5729   36.5516 C   0  0  0  0  0  0  0  0  0  0  0  0
    0.6831  109.4224   35.9827 C   0  0  0  0  0  0  0  0  0  0  0  0
    1.9966  109.0041   37.9350 C   0  0  0  0  0  0  0  0  0  0  0  0
    2.0099  110.6106   40.0873 Cl  0  0  0  0  0  0  0  0  0  0  0  0
    2.2235  107.1950   35.9721 Cl  0  0  0  0  0  0  0  0  0  0  0  0
    0.6060  114.4494   39.0246 C   0  0  0  0  0  0  0  0  0  0  0  0
    0.7247  115.7383   38.2301 C   0  0  0  0  0  0  0  0  0  0  0  0
    0.0712  116.7128   38.6908 O   0  0  0  0  0  0  0  0  0  0  0  0
    1.4649  115.6612   37.2116 O   0  0  0  0  0  0  0  0  0  0  0  0
    1.8878  114.8523   37.0000 H   0  0  0  0  0  0  0  0  0  0  0  0
    1.5839  114.6295   40.1744 C   0  0  0  0  0  0  0  0  0  0  0  0
    0.8547  114.8417   41.4589 C   0  0  0  0  0  0  0  0  0  0  0  0
   -0.3884  114.2903   41.6593 C   0  0  0  0  0  0  0  0  0  0  0  0
    1.4189  115.5970   42.4596 C   0  0  0  0  0  0  0  0  0  0  0  0
   -1.0565  114.4912   42.8451 C   0  0  0  0  0  0  0  0  0  0  0  0
    0.7547  115.8031   43.6453 C   0  0  0  0  0  0  0  0  0  0  0  0
   -0.4865  115.2490   43.8405 C   0  0  0  0  0  0  0  0  0  0  0  0
  5  1  1  0  0  0
  6 10  2  0  0  0
  6  9  1  0  0  0
  7 11  1  0  0  0
  7  5  2  0  0  0
  1  3  2  0  0  0
  2  1  1  0  0  0
  2 13  1  0  0  0
 13 14  1  0  0  0
 13 18  1  0  0  0
 14 16  1  0  0  0
 15 14  2  0  0  0
 18 19  1  0  0  0
 19 20  1  0  0  0
 20 22  2  0  0  0
 21 23  1  0  0  0
 21 19  2  0  0  0
 23 24  2  0  0  0
 24 22  1  0  0  0
  8  5  1  0  0  0
  9  8  2  0  0  0
 10  7  1  0  0  0
 12  6  1  0  0  0
  2  4  1  0  0  0
 16 17  1  0  0  0
M  END
> <minimizedAffinity>
-5.78473

$$$$
ligand_crystal.pdb


 24 25  0  0  0  0  0  0  0  0999 V2000
    1.1263  114.6828   43.5208 C   0  0  0  0  0  0  0  0  0  0  0  0
    1.4201  115.8143   42.8009 N   0  0  0  0  0  0  0  0  0  0  0  0
    1.6914  113.6050   43.4197 O   0  0  0  0  0  0  0  0  0  0  0  0
    1.0366  116.6830   43.0607 H   0  0  0  0  0  0  0  0  0  0  0  0
    0.0193  114.8344   44.4692 C   0  0  0  0  0  0  0  0  0  0  0  0
   -2.0289  115.1035   46.2620 C   0  0  0  0  0  0  0  0  0  0  0  0
    0.2930  114.8648   45.8149 C   0  0  0  0  0  0  0  0  0  0  0  0
   -1.2710  114.9326   44.0030 C   0  0  0  0  0  0  0  0  0  0  0  0
   -2.2976  115.0712   44.9097 C   0  0  0  0  0  0  0  0  0  0  0  0
   -0.7354  114.9995   46.7168 C   0  0  0  0  0  0  0  0  0  0  0  0
    1.9154  114.7317   46.3776 Cl  0  0  0  0  0  0  0  0  0  0  0  0
   -3.3073  115.2750   47.4144 Cl  0  0  0  0  0  0  0  0  0  0  0  0
    2.3004  115.7160   41.6549 C   0  0  0  0  0  0  0  0  0  0  0  0
    3.3993  116.7643   41.6376 C   0  0  0  0  0  0  0  0  0  0  0  0
    3.4945  117.4569   42.6865 O   0  0  0  0  0  0  0  0  0  0  0  0
    4.0728  116.8015   40.5718 O   0  0  0  0  0  0  0  0  0  0  0  0
    3.8754  116.2106   39.8719 H   0  0  0  0  0  0  0  0  0  0  0  0
    1.5790  115.9112   40.3313 C   0  0  0  0  0  0  0  0  0  0  0  0
    0.4576  114.9364   40.1928 C   0  0  0  0  0  0  0  0  0  0  0  0
    0.7101  113.5946   40.0335 C   0  0  0  0  0  0  0  0  0  0  0  0
   -0.8463  115.3714   40.2200 C   0  0  0  0  0  0  0  0  0  0  0  0
   -0.3281  112.7010   39.9044 C   0  0  0  0  0  0  0  0  0  0  0  0
   -1.8873  114.4834   40.0888 C   0  0  0  0  0  0  0  0  0  0  0  0
   -1.6293  113.1438   39.9309 C   0  0  0  0  0  0  0  0  0  0  0  0
  5  1  1  0  0  0
  6 10  2  0  0  0
  6  9  1  0  0  0
  7 11  1  0  0  0
  7  5  2  0  0  0
  1  3  2  0  0  0
  2  1  1  0  0  0
  2 13  1  0  0  0
 13 14  1  0  0  0
 13 18  1  0  0  0
 14 16  1  0  0  0
 15 14  2  0  0  0
 18 19  1  0  0  0
 19 20  1  0  0  0
 20 22  2  0  0  0
 21 23  1  0  0  0
 21 19  2  0  0  0
 23 24  2  0  0  0
 24 22  1  0  0  0
  8  5  1  0  0  0
  9  8  2  0  0  0
 10  7  1  0  0  0
 12  6  1  0  0  0
  2  4  1  0  0  0
 16 17  1  0  0  0
M  END
> <minimizedAffinity>
-5.74383

$$$$
ligand_crystal.pdb


 24 25  0  0  0  0  0  0  0  0999 V2000
    2.1404  114.2717   42.2918 C   0  0  0  0  0  0  0  0  0  0  0  0
    2.6985  115.3544   42.9252 N   0  0  0  0  0  0  0  0  0  0  0  0
    2.7536  113.3343   41.8055 O   0  0  0  0  0  0  0  0  0  0  0  0
    2.1335  115.9773   43.4370 H   0  0  0  0  0  0  0  0  0  0  0  0
    0.6776  114.3025   42.2076 C   0  0  0  0  0  0  0  0  0  0  0  0
   -2.0541  114.3356   42.0717 C   0  0  0  0  0  0  0  0  0  0  0  0
   -0.0615  113.8056   43.2536 C   0  0  0  0  0  0  0  0  0  0  0  0
    0.0685  114.8147   41.0859 C   0  0  0  0  0  0  0  0  0  0  0  0
   -1.3067  114.8319   41.0243 C   0  0  0  0  0  0  0  0  0  0  0  0
   -1.4342  113.8212   43.1862 C   0  0  0  0  0  0  0  0  0  0  0  0
    0.7217  113.1608   44.6455 Cl  0  0  0  0  0  0  0  0  0  0  0  0
   -3.7826  114.3478   42.0092 Cl  0  0  0  0  0  0  0  0  0  0  0  0
    4.1277  115.5702   42.8322 C   0  0  0  0  0  0  0  0  0  0  0  0
    4.6298  115.7281   41.4076 C   0  0  0  0  0  0  0  0  0  0  0  0
    4.2082  116.7501   40.8020 O   0  0  0  0  0  0  0  0  0  0  0  0
    5.4052  114.8120   41.0195 O   0  0  0  0  0  0  0  0  0  0  0  0
    5.6262  114.1089   41.5980 H   0  0  0  0  0  0  0  0  0  0  0  0
    4.9421  114.4131   43.3878 C   0  0  0  0  0  0  0  0  0  0  0  0
    4.9705  114.4560   44.8791 C   0  0  0  0  0  0  0  0  0  0  0  0
    4.3220  113.4976   45.6210 C   0  0  0  0  0  0  0  0  0  0  0  0
    5.6458  115.4606   45.5309 C   0  0  0  0  0  0  0  0  0  0  0  0
    4.3503  113.5437   46.9958 C   0  0  0  0  0  0  0  0  0  0  0  0
    5.6752  115.5131   46.9042 C   0  0  0  0  0  0  0  0  0  0  0  0
    5.0264  114.5524   47.6404 C   0  0  0  0  0  0  0  0  0  0  0  0
  5  1  1  0  0  0
  6 10  2  0  0  0
  6  9  1  0  0  0
  7 11  1  0  0  0
  7  5  2  0  0  0
  1  3  2  0  0  0
  2  1  1  0  0  0
  2 13  1  0  0  0
 13 14  1  0  0  0
 13 18  1  0  0  0
 14 16  1  0  0  0
 15 14  2  0  0  0
 18 19  1  0  0  0
 19 20  1  0  0  0
 20 22  2  0  0  0
 21 23  1  0  0  0
 21 19  2  0  0  0
 23 24  2  0  0  0
 24 22  1  0  0  0
  8  5  1  0  0  0
  9  8  2  0  0  0
 10  7  1  0  0  0
 12  6  1  0  0  0
  2  4  1  0  0  0
 16 17  1  0  0  0
M  END
> <minimizedAffinity>
-5.69033

$$$$
ligand_crystal.pdb


 24 25  0  0  0  0  0  0  0  0999 V2000
    0.6251  109.5260   39.3091 C   0  0  0  0  0  0  0  0  0  0  0  0
    1.5199  108.7293   38.6385 N   0  0  0  0  0  0  0  0  0  0  0  0
   -0.5757  109.3264   39.4065 O   0  0  0  0  0  0  0  0  0  0  0  0
    2.4885  108.8652   38.7506 H   0  0  0  0  0  0  0  0  0  0  0  0
    1.2150  110.7145   39.9315 C   0  0  0  0  0  0  0  0  0  0  0  0
    2.3191  112.9460   41.0641 C   0  0  0  0  0  0  0  0  0  0  0  0
    1.1606  111.9138   39.2639 C   0  0  0  0  0  0  0  0  0  0  0  0
    1.8203  110.6118   41.1622 C   0  0  0  0  0  0  0  0  0  0  0  0
    2.3715  111.7389   41.7290 C   0  0  0  0  0  0  0  0  0  0  0  0
    1.7156  113.0357   39.8318 C   0  0  0  0  0  0  0  0  0  0  0  0
    0.4051  112.0183   37.7196 Cl  0  0  0  0  0  0  0  0  0  0  0  0
    3.0085  114.3709   41.7613 Cl  0  0  0  0  0  0  0  0  0  0  0  0
    1.0232  107.6867   37.7644 C   0  0  0  0  0  0  0  0  0  0  0  0
    0.8869  106.3348   38.4429 C   0  0  0  0  0  0  0  0  0  0  0  0
    1.6224  105.4245   37.9745 O   0  0  0  0  0  0  0  0  0  0  0  0
    0.0529  106.3036   39.3888 O   0  0  0  0  0  0  0  0  0  0  0  0
   -0.4228  107.0772   39.6197 H   0  0  0  0  0  0  0  0  0  0  0  0
    1.9365  107.4179   36.5794 C   0  0  0  0  0  0  0  0  0  0  0  0
    1.5900  108.3088   35.4335 C   0  0  0  0  0  0  0  0  0  0  0  0
    0.5014  109.1454   35.4996 C   0  0  0  0  0  0  0  0  0  0  0  0
    2.3571  108.3008   34.2926 C   0  0  0  0  0  0  0  0  0  0  0  0
    0.1859  109.9632   34.4389 C   0  0  0  0  0  0  0  0  0  0  0  0
    2.0451  109.1137   33.2290 C   0  0  0  0  0  0  0  0  0  0  0  0
    0.9569  109.9482   33.3007 C   0  0  0  0  0  0  0  0  0  0  0  0
  5  1  1  0  0  0
  6 10  2  0  0  0
  6  9  1  0  0  0
  7 11  1  0  0  0
  7  5  2  0  0  0
  1  3  2  0  0  0
  2  1  1  0  0  0
  2 13  1  0  0  0
 13 14  1  0  0  0
 13 18  1  0  0  0
 14 16  1  0  0  0
 15 14  2  0  0  0
 18 19  1  0  0  0
 19 20  1  0  0  0
 20 22  2  0  0  0
 21 23  1  0  0  0
 21 19  2  0  0  0
 23 24  2  0  0  0
 24 22  1  0  0  0
  8  5  1  0  0  0
  9  8  2  0  0  0
 10  7  1  0  0  0
 12  6  1  0  0  0
  2  4  1  0  0  0
 16 17  1  0  0  0
M  END
> <minimizedAffinity>
-5.60974

$$$$
ligand_crystal.pdb


 24 25  0  0  0  0  0  0  0  0999 V2000
    2.6591  113.9599   44.2780 C   0  0  0  0  0  0  0  0  0  0  0  0
    3.0696  115.1364   43.7017 N   0  0  0  0  0  0  0  0  0  0  0  0
    2.1910  112.9997   43.6861 O   0  0  0  0  0  0  0  0  0  0  0  0
    3.5906  115.7901   44.2218 H   0  0  0  0  0  0  0  0  0  0  0  0
    2.8045  113.9121   45.7355 C   0  0  0  0  0  0  0  0  0  0  0  0
    3.0569  113.8488   48.4584 C   0  0  0  0  0  0  0  0  0  0  0  0
    1.8374  114.4895   46.5218 C   0  0  0  0  0  0  0  0  0  0  0  0
    3.9050  113.3036   46.2927 C   0  0  0  0  0  0  0  0  0  0  0  0
    4.0252  113.2718   47.6637 C   0  0  0  0  0  0  0  0  0  0  0  0
    1.9634  114.4588   47.8901 C   0  0  0  0  0  0  0  0  0  0  0  0
    0.4714  115.2539   45.8031 Cl  0  0  0  0  0  0  0  0  0  0  0  0
    3.1939  113.8194   50.1823 Cl  0  0  0  0  0  0  0  0  0  0  0  0
    2.7279  115.4055   42.3202 C   0  0  0  0  0  0  0  0  0  0  0  0
    3.4017  116.6435   41.7547 C   0  0  0  0  0  0  0  0  0  0  0  0
    3.4579  117.6279   42.5400 O   0  0  0  0  0  0  0  0  0  0  0  0
    3.8172  116.5205   40.5700 O   0  0  0  0  0  0  0  0  0  0  0  0
    3.6975  115.7112   40.1132 H   0  0  0  0  0  0  0  0  0  0  0  0
    1.2440  115.6618   42.1128 C   0  0  0  0  0  0  0  0  0  0  0  0
    0.7641  115.0016   40.8636 C   0  0  0  0  0  0  0  0  0  0  0  0
   -0.2477  115.5600   40.1193 C   0  0  0  0  0  0  0  0  0  0  0  0
    1.3286  113.8208   40.4427 C   0  0  0  0  0  0  0  0  0  0  0  0
   -0.6872  114.9455   38.9693 C   0  0  0  0  0  0  0  0  0  0  0  0
    0.8917  113.2012   39.2961 C   0  0  0  0  0  0  0  0  0  0  0  0
   -0.1188  113.7640   38.5558 C   0  0  0  0  0  0  0  0  0  0  0  0
  5  1  1  0  0  0
  6 10  2  0  0  0
  6  9  1  0  0  0
  7 11  1  0  0  0
  7  5  2  0  0  0
  1  3  2  0  0  0
  2  1  1  0  0  0
  2 13  1  0  0  0
 13 14  1  0  0  0
 13 18  1  0  0  0
 14 16  1  0  0  0
 15 14  2  0  0  0
 18 19  1  0  0  0
 19 20  1  0  0  0
 20 22  2  0  0  0
 21 23  1  0  0  0
 21 19  2  0  0  0
 23 24  2  0  0  0
 24 22  1  0  0  0
  8  5  1  0  0  0
  9  8  2  0  0  0
 10  7  1  0  0  0
 12  6  1  0  0  0
  2  4  1  0  0  0
 16 17  1  0  0  0
M  END
> <minimizedAffinity>
-5.60324

$$$$
