XTAL_avb3
     RDKit          3D

 35 38  0  0  0  0  0  0  0  0999 V2000
   17.5180   43.2440   40.3380 C   0  0  0  0  0  0  0  0  0  0  0  0
   16.8050   45.4830   43.5130 C   0  0  0  0  0  0  0  0  0  0  0  0
   18.1150   47.6600   43.5730 C   0  0  0  0  0  0  0  0  0  0  0  0
   17.0960   49.8160   42.9740 C   0  0  0  0  0  0  0  0  0  0  0  0
   14.5820   51.1880   42.6350 C   0  0  0  0  0  0  0  0  0  0  0  0
   15.9010   49.0900   42.7390 C   0  0  0  0  0  0  0  0  0  0  0  0
   21.1830   37.0490   38.9740 C   0  0  0  0  0  0  0  0  0  0  0  0
   21.1190   38.1210   40.1160 C   0  0  2  0  0  0  0  0  0  0  0  0
   20.4870   39.3920   39.5570 C   0  0  0  0  0  0  0  0  0  0  0  0
   19.5330   39.9890   40.5810 C   0  0  0  0  0  0  0  0  0  0  0  0
   17.9390   41.8550   40.6800 C   0  0  0  0  0  0  0  0  0  0  0  0
   16.7830   43.9260   41.5090 C   0  0  0  0  0  0  0  0  0  0  0  0
   17.6530   44.6740   42.5100 C   0  0  0  0  0  0  0  0  0  0  0  0
   16.8860   47.0180   43.3210 C   0  0  0  0  0  0  0  0  0  0  0  0
   18.2170   49.0580   43.4020 C   0  0  0  0  0  0  0  0  0  0  0  0
   17.1870   51.3010   42.7830 C   0  0  0  0  0  0  0  0  0  0  0  0
   15.8580   52.0420   42.4170 C   0  0  0  0  0  0  0  0  0  0  0  0
   22.6470   38.8240   41.9870 C   0  0  0  0  0  0  0  0  0  0  0  0
   24.0790   38.9790   42.5280 C   0  0  0  0  0  0  0  0  0  0  0  0
   26.4180   38.9580   42.5160 C   0  0  0  0  0  0  0  0  0  0  0  0
   26.3040   39.3130   43.8690 C   0  0  0  0  0  0  0  0  0  0  0  0
   27.4560   39.5200   44.6520 C   0  0  0  0  0  0  0  0  0  0  0  0
   28.7380   39.3700   44.0760 C   0  0  0  0  0  0  0  0  0  0  0  0
   28.8690   39.0100   42.7120 C   0  0  0  0  0  0  0  0  0  0  0  0
   27.7130   38.8060   41.9400 C   0  0  0  0  0  0  0  0  0  0  0  0
   19.1450   41.3130   40.2220 N   0  0  0  0  0  0  0  0  0  0  0  0
   14.6960   49.7690   42.2890 N   0  0  0  0  0  0  0  0  0  0  0  0
   15.8190   47.7270   42.9070 N   0  0  0  0  0  0  0  0  0  0  0  0
   22.4540   38.3290   40.6980 N   0  0  0  0  0  0  0  0  0  0  0  0
   25.1930   38.7710   41.8090 N   0  0  0  0  0  0  0  0  0  0  0  0
   22.3380   36.7090   38.5340 O   0  0  0  0  0  0  0  0  0  0  0  0
   20.1010   36.5450   38.4990 O   0  0  0  0  0  0  0  0  0  0  0  0
   17.2180   41.1550   41.4130 O   0  0  0  0  0  0  0  0  0  0  0  0
   21.7370   39.1960   42.7330 O   0  0  0  0  0  0  0  0  0  0  0  0
   24.5510   39.4060   44.2310 S   0  0  0  0  0  0  0  0  0  0  0  0
  6  4  1  0
  8  7  1  0
  8  9  1  6
 10  9  1  0
 11  1  1  0
 12  1  1  0
 13 12  1  0
 13  2  1  0
 14  3  1  0
 14  2  1  0
 15  3  2  0
 15  4  1  0
 16  4  2  0
 17  5  2  0
 17 16  1  0
 19 18  1  0
 21 20  1  0
 22 21  2  0
 23 22  1  0
 24 23  2  0
 25 20  2  0
 25 24  1  0
 26 11  1  0
 26 10  1  0
 27  6  2  0
 27  5  1  0
 28  6  1  0
 28 14  2  0
 29  8  1  0
 29 18  1  0
 30 20  1  0
 30 19  2  0
 31  7  2  0
 32  7  1  0
 33 11  2  0
 34 18  2  0
 35 19  1  0
 35 21  1  0
M  END
$$$$
