docking/v2/isoforms/avb6/ligand.pdb
 OpenBabel09292622583D

 37 41  0  0  1  0  0  0  0  0999 V2000
    3.9960  -48.6400  -17.8670 C   0  0  0  0  0  0  0  0  0  0  0  0
    2.1460  -46.8350  -18.9790 C   0  0  0  0  0  0  0  0  0  0  0  0
    3.6040  -46.3520  -18.8720 C   0  0  1  0  0  0  0  0  0  0  0  0
    4.3380  -47.2840  -17.8940 C   0  0  0  0  0  0  0  0  0  0  0  0
    4.2500  -46.3840  -20.1110 O   0  0  0  0  0  0  0  0  0  0  0  0
    3.6510  -45.5260  -21.0450 C   0  0  0  0  0  0  0  0  0  0  0  0
    2.1890  -45.9080  -21.3480 C   0  0  0  0  0  0  0  0  0  0  0  0
    1.3650  -46.0610  -20.0570 C   0  0  0  0  0  0  0  0  0  0  0  0
   11.4770  -46.5600  -20.8890 C   0  0  0  0  0  0  0  0  0  0  0  0
   10.5210  -45.4020  -20.5560 C   0  0  0  0  0  0  0  0  0  0  0  0
   12.7700  -46.0470  -21.5420 C   0  0  0  0  0  0  0  0  0  0  0  0
   13.9840  -47.1090  -23.4610 C   0  0  0  0  0  0  0  0  0  0  0  0
    8.6560  -43.8040  -18.7130 C   0  0  0  0  0  0  0  0  0  0  0  0
    7.5640  -43.7600  -17.6270 C   0  0  0  0  0  0  0  0  0  0  0  0
    7.1700  -45.1880  -17.3850 N   0  0  0  0  0  0  0  0  0  0  0  0
    5.4740  -44.6780  -15.6690 C   0  0  0  0  0  0  0  0  0  0  0  0
    5.7130  -45.3010  -17.0550 C   0  0  2  0  0  0  0  0  0  0  0  0
    5.3250  -46.7920  -17.0330 C   0  0  0  0  0  0  0  0  0  0  0  0
    5.9710  -47.6650  -16.1520 C   0  0  0  0  0  0  0  0  0  0  0  0
    5.6290  -49.0220  -16.1300 C   0  0  0  0  0  0  0  0  0  0  0  0
    4.6430  -49.5120  -16.9870 C   0  0  0  0  0  0  0  0  0  0  0  0
    8.4760  -45.1450  -19.4510 C   0  0  2  0  0  0  0  0  0  0  0  0
   13.7230  -47.1870  -21.9490 C   0  0  0  0  0  0  0  0  0  0  0  0
   15.1140  -46.0740  -25.2520 C   0  0  0  0  0  0  0  0  0  0  0  0
   14.4780  -46.9110  -26.1740 C   0  0  0  0  0  0  0  0  0  0  0  0
   13.5570  -47.8650  -25.7180 C   0  0  0  0  0  0  0  0  0  0  0  0
   13.3090  -47.9650  -24.3410 C   0  0  0  0  0  0  0  0  0  0  0  0
   14.7880  -46.7450  -27.6700 C   0  0  0  0  0  0  0  0  0  0  0  0
   15.0400  -45.2650  -28.0030 C   0  0  0  0  0  0  0  0  0  0  0  0
   16.1150  -44.6180  -27.1080 C   0  0  0  0  0  0  0  0  0  0  0  0
    7.4670  -45.9680  -18.6320 C   0  0  0  0  0  0  0  0  0  0  0  0
    6.2890  -49.9110  -15.2230 F   0  0  0  0  0  0  0  0  0  0  0  0
   14.8560  -46.2010  -23.9260 N   0  0  0  0  0  0  0  0  0  0  0  0
   16.1110  -45.0250  -25.6580 N   0  0  0  0  0  0  0  0  0  0  0  0
    6.4100  -44.4450  -14.9370 O   0  5  0  0  0  0  0  0  0  0  0  0
    4.3450  -44.4270  -15.3270 O   0  0  0  0  0  0  0  0  0  0  0  0
    9.6900  -45.8370  -19.5200 O   0  0  0  0  0  0  0  0  0  0  0  0
  1 21  1  0  0  0  0
  2  3  1  0  0  0  0
  3  4  1  1  0  0  0
  4  1  2  0  0  0  0
  4 18  1  0  0  0  0
  5  3  1  0  0  0  0
  6  5  1  0  0  0  0
  7  6  1  0  0  0  0
  7  8  1  0  0  0  0
  8  2  1  0  0  0  0
  9 10  1  0  0  0  0
 10 37  1  0  0  0  0
 11  9  1  0  0  0  0
 12 23  1  0  0  0  0
 13 14  1  0  0  0  0
 14 15  1  0  0  0  0
 15 17  1  0  0  0  0
 16 36  2  0  0  0  0
 16 35  1  0  0  0  0
 17 18  1  0  0  0  0
 17 16  1  1  0  0  0
 18 19  2  0  0  0  0
 19 20  1  0  0  0  0
 20 32  1  0  0  0  0
 21 20  2  0  0  0  0
 22 37  1  1  0  0  0
 22 13  1  0  0  0  0
 22 31  1  0  0  0  0
 23 11  1  0  0  0  0
 24 33  2  0  0  0  0
 25 26  2  0  0  0  0
 25 24  1  0  0  0  0
 26 27  1  0  0  0  0
 27 12  2  0  0  0  0
 28 25  1  0  0  0  0
 29 28  1  0  0  0  0
 29 30  1  0  0  0  0
 30 34  2  0  0  0  0
 31 15  1  0  0  0  0
 33 12  1  0  0  0  0
 34 24  1  0  0  0  0
M  CHG  1  35  -1
M  END
$$$$
