docking/v2/isoforms/avb6/gate/pose_006.pdbqt
 OpenBabel09292623503D

 37 41  0  0  1  0  0  0  0  0999 V2000
   11.0210  -47.2860  -16.5820 O   0  0  0  0  0  0  0  0  0  0  0  0
   10.1220  -46.2690  -16.9190 C   0  0  1  0  0  0  0  0  0  0  0  0
    7.9120  -46.2080  -15.8760 N   0  0  0  0  0  0  0  0  0  0  0  0
    8.6280  -44.9540  -15.4650 C   0  0  0  0  0  0  0  0  0  0  0  0
    8.6980  -46.8480  -16.9820 C   0  0  0  0  0  0  0  0  0  0  0  0
   10.1070  -45.1750  -15.8340 C   0  0  0  0  0  0  0  0  0  0  0  0
    6.5230  -45.9090  -16.3530 C   0  0  1  0  0  0  0  0  0  0  0  0
    5.8120  -47.2390  -16.6680 C   0  0  0  0  0  0  0  0  0  0  0  0
    4.3580  -48.5720  -18.0770 C   0  0  0  0  0  0  0  0  0  0  0  0
    4.5370  -49.6720  -17.2330 C   0  0  0  0  0  0  0  0  0  0  0  0
    4.9960  -47.3590  -17.7990 C   0  0  0  0  0  0  0  0  0  0  0  0
    5.3520  -49.5520  -16.1070 C   0  0  0  0  0  0  0  0  0  0  0  0
    5.9890  -48.3390  -15.8240 C   0  0  0  0  0  0  0  0  0  0  0  0
    5.5320  -50.6740  -15.2370 F   0  0  0  0  0  0  0  0  0  0  0  0
    4.7750  -46.1690  -18.7460 C   0  0  2  0  0  0  0  0  0  0  0  0
    3.3200  -46.2280  -19.2460 C   0  0  0  0  0  0  0  0  0  0  0  0
    5.6870  -46.2460  -19.8030 O   0  0  0  0  0  0  0  0  0  0  0  0
    3.0420  -45.1660  -20.3260 C   0  0  0  0  0  0  0  0  0  0  0  0
    5.5630  -45.1670  -20.6910 C   0  0  0  0  0  0  0  0  0  0  0  0
    4.1780  -45.1090  -21.3640 C   0  0  0  0  0  0  0  0  0  0  0  0
    5.7710  -45.1650  -15.2360 C   0  0  0  0  0  0  0  0  0  0  0  0
    5.7560  -45.6360  -14.1260 O   0  0  0  0  0  0  0  0  0  0  0  0
    5.2020  -44.1230  -15.4750 O   0  0  0  0  0  0  0  0  0  0  0  0
   11.5190  -47.1810  -15.2810 C   0  0  0  0  0  0  0  0  0  0  0  0
   13.0540  -47.1680  -15.3810 C   0  0  0  0  0  0  0  0  0  0  0  0
   13.6920  -46.5650  -14.1200 C   0  0  0  0  0  0  0  0  0  0  0  0
   15.1440  -47.0320  -13.9060 C   0  0  0  0  0  0  0  0  0  0  0  0
   16.0570  -46.3110  -14.9090 C   0  0  0  0  0  0  0  0  0  0  0  0
   16.6880  -47.0270  -15.9340 C   0  0  0  0  0  0  0  0  0  0  0  0
   16.2300  -44.9850  -14.7960 N   0  0  0  0  0  0  0  0  0  0  0  0
   17.5080  -46.3420  -16.8440 C   0  0  0  0  0  0  0  0  0  0  0  0
   17.0110  -44.2910  -15.6620 C   0  0  0  0  0  0  0  0  0  0  0  0
   17.6740  -44.9580  -16.6970 C   0  0  0  0  0  0  0  0  0  0  0  0
   17.1340  -42.8100  -15.4380 N   0  0  0  0  0  0  0  0  0  0  0  0
   18.5520  -44.1470  -17.6650 C   0  0  0  0  0  0  0  0  0  0  0  0
   17.6630  -41.9920  -16.5860 C   0  0  0  0  0  0  0  0  0  0  0  0
   17.9460  -42.7530  -17.8960 C   0  0  0  0  0  0  0  0  0  0  0  0
  1 24  1  0  0  0  0
  2  1  1  1  0  0  0
  2  6  1  0  0  0  0
  3  4  1  0  0  0  0
  5  2  1  0  0  0  0
  5  3  1  0  0  0  0
  6  4  1  0  0  0  0
  7  3  1  0  0  0  0
  7 21  1  1  0  0  0
  8  7  1  0  0  0  0
  8 13  1  0  0  0  0
  9 11  1  0  0  0  0
  9 10  2  0  0  0  0
 10 12  1  0  0  0  0
 11  8  2  0  0  0  0
 12 13  2  0  0  0  0
 12 14  1  0  0  0  0
 15 11  1  1  0  0  0
 16 15  1  0  0  0  0
 17 15  1  0  0  0  0
 18 16  1  0  0  0  0
 19 17  1  0  0  0  0
 20 19  1  0  0  0  0
 20 18  1  0  0  0  0
 21 22  1  0  0  0  0
 23 21  2  0  0  0  0
 25 24  1  0  0  0  0
 25 26  1  0  0  0  0
 26 27  1  0  0  0  0
 28 30  1  0  0  0  0
 28 27  1  0  0  0  0
 29 28  2  0  0  0  0
 31 33  2  0  0  0  0
 31 29  1  0  0  0  0
 32 34  1  0  0  0  0
 32 30  2  0  0  0  0
 33 32  1  0  0  0  0
 35 33  1  0  0  0  0
 36 34  2  0  0  0  0
 37 35  1  0  0  0  0
 37 36  1  0  0  0  0
M  END
>  <MODEL>
6

>  <REMARK>
 VINA RESULT:    -6.778      5.131      7.881
 INTER + INTRA:         -13.310
 INTER:                 -12.120
 INTRA:                  -1.191
 UNBOUND:                -2.570
 SMILES O=C([O-])[C@H](c1cc(F)ccc1[C@@H]1CCCCO1)N1CC[C@@H](OCCCCc2ccc3c(n2)N=CCC3)C1
 SMILES IDX 22 1 21 2 18 3 19 4 37 5 20 6 4 7 5 8 10 9 9 10 11 11 7 12
 SMILES IDX 6 13 8 14 12 15 13 16 17 17 14 18 16 19 15 20 2 21 1 22 3 23
 SMILES IDX 23 24 24 25 25 26 26 27 27 28 28 29 32 30 29 31 31 32 30 33
 SMILES IDX 33 34 36 35 34 36 35 37
 H PARENT

>  <TORSDO>
F 10

$$$$
