docking/v2/isoforms/avb6/gate/pose_004.pdbqt
 OpenBabel09292623493D

 37 41  0  0  1  0  0  0  0  0999 V2000
    9.7440  -45.9700  -19.4460 O   0  0  0  0  0  0  0  0  0  0  0  0
    8.5410  -45.2760  -19.2830 C   0  0  1  0  0  0  0  0  0  0  0  0
    7.2150  -45.6030  -17.2550 N   0  0  0  0  0  0  0  0  0  0  0  0
    7.6340  -44.1620  -17.2790 C   0  0  0  0  0  0  0  0  0  0  0  0
    7.5120  -46.1940  -18.6020 C   0  0  0  0  0  0  0  0  0  0  0  0
    8.7350  -44.0630  -18.3520 C   0  0  0  0  0  0  0  0  0  0  0  0
    5.7540  -45.7390  -16.9560 C   0  0  1  0  0  0  0  0  0  0  0  0
    5.3940  -47.2370  -16.9180 C   0  0  0  0  0  0  0  0  0  0  0  0
    4.0140  -49.0950  -17.6400 C   0  0  0  0  0  0  0  0  0  0  0  0
    4.7630  -49.9690  -16.8470 C   0  0  0  0  0  0  0  0  0  0  0  0
    4.3290  -47.7330  -17.6790 C   0  0  0  0  0  0  0  0  0  0  0  0
    5.8260  -49.4750  -16.0900 C   0  0  0  0  0  0  0  0  0  0  0  0
    6.1430  -48.1120  -16.1250 C   0  0  0  0  0  0  0  0  0  0  0  0
    6.5920  -50.3660  -15.2730 F   0  0  0  0  0  0  0  0  0  0  0  0
    3.4820  -46.7990  -18.5590 C   0  0  2  0  0  0  0  0  0  0  0  0
    2.0820  -47.4240  -18.6970 C   0  0  0  0  0  0  0  0  0  0  0  0
    4.1040  -46.6470  -19.8010 O   0  0  0  0  0  0  0  0  0  0  0  0
    1.2020  -46.6420  -19.6900 C   0  0  0  0  0  0  0  0  0  0  0  0
    3.3990  -45.7760  -20.6450 C   0  0  0  0  0  0  0  0  0  0  0  0
    1.9800  -46.2830  -20.9690 C   0  0  0  0  0  0  0  0  0  0  0  0
    5.4720  -45.1000  -15.5850 C   0  0  0  0  0  0  0  0  0  0  0  0
    4.6870  -44.1870  -15.5160 O   0  0  0  0  0  0  0  0  0  0  0  0
    6.0340  -45.5110  -14.5950 O   0  0  0  0  0  0  0  0  0  0  0  0
   10.5850  -45.4090  -20.4110 C   0  0  0  0  0  0  0  0  0  0  0  0
   11.0920  -46.5600  -21.2970 C   0  0  0  0  0  0  0  0  0  0  0  0
   12.5030  -46.2720  -21.8340 C   0  0  0  0  0  0  0  0  0  0  0  0
   13.2030  -47.5340  -22.3730 C   0  0  0  0  0  0  0  0  0  0  0  0
   13.4650  -47.3610  -23.8770 C   0  0  0  0  0  0  0  0  0  0  0  0
   12.7020  -48.0700  -24.8140 C   0  0  0  0  0  0  0  0  0  0  0  0
   14.4230  -46.5120  -24.2780 N   0  0  0  0  0  0  0  0  0  0  0  0
   12.9540  -47.8850  -26.1820 C   0  0  0  0  0  0  0  0  0  0  0  0
   14.6880  -46.3050  -25.5930 C   0  0  0  0  0  0  0  0  0  0  0  0
   13.9660  -46.9960  -26.5710 C   0  0  0  0  0  0  0  0  0  0  0  0
   15.7860  -45.3340  -25.9260 N   0  0  0  0  0  0  0  0  0  0  0  0
   14.2860  -46.7420  -28.0530 C   0  0  0  0  0  0  0  0  0  0  0  0
   15.8260  -44.8140  -27.3380 C   0  0  0  0  0  0  0  0  0  0  0  0
   14.6870  -45.2740  -28.2690 C   0  0  0  0  0  0  0  0  0  0  0  0
  2  1  1  1  0  0  0
  2  5  1  0  0  0  0
  2  6  1  0  0  0  0
  3  7  1  0  0  0  0
  4  3  1  0  0  0  0
  5  3  1  0  0  0  0
  6  4  1  0  0  0  0
  7  8  1  0  0  0  0
  7 21  1  1  0  0  0
  8 13  1  0  0  0  0
  9 10  2  0  0  0  0
 10 12  1  0  0  0  0
 11  9  1  0  0  0  0
 11  8  2  0  0  0  0
 12 14  1  0  0  0  0
 13 12  2  0  0  0  0
 15 11  1  1  0  0  0
 16 15  1  0  0  0  0
 17 15  1  0  0  0  0
 18 16  1  0  0  0  0
 19 17  1  0  0  0  0
 20 19  1  0  0  0  0
 20 18  1  0  0  0  0
 21 22  2  0  0  0  0
 21 23  1  0  0  0  0
 24  1  1  0  0  0  0
 25 24  1  0  0  0  0
 26 25  1  0  0  0  0
 27 26  1  0  0  0  0
 28 27  1  0  0  0  0
 29 28  2  0  0  0  0
 30 28  1  0  0  0  0
 31 29  1  0  0  0  0
 32 30  2  0  0  0  0
 33 31  2  0  0  0  0
 33 32  1  0  0  0  0
 34 32  1  0  0  0  0
 35 33  1  0  0  0  0
 36 34  2  0  0  0  0
 37 35  1  0  0  0  0
 37 36  1  0  0  0  0
M  END
>  <MODEL>
4

>  <REMARK>
 VINA RESULT:    -6.893      4.082      5.310
 INTER + INTRA:         -13.492
 INTER:                 -12.536
 INTRA:                  -0.956
 UNBOUND:                -2.570
 SMILES O=C([O-])[C@H](c1cc(F)ccc1[C@@H]1CCCCO1)N1CC[C@@H](OCCCCc2ccc3c(n2)N=CCC3)C1
 SMILES IDX 22 1 21 2 18 3 19 4 37 5 20 6 4 7 5 8 10 9 9 10 11 11 7 12
 SMILES IDX 6 13 8 14 12 15 13 16 17 17 14 18 16 19 15 20 2 21 1 22 3 23
 SMILES IDX 23 24 24 25 25 26 26 27 27 28 28 29 32 30 29 31 31 32 30 33
 SMILES IDX 33 34 36 35 34 36 35 37
 H PARENT

>  <TORSDO>
F 10

$$$$
