docking/v2/isoforms/avb6/gate/pose_002.pdbqt
 OpenBabel09292623493D

 37 41  0  0  1  0  0  0  0  0999 V2000
    7.0400  -45.3930  -14.9590 O   0  0  0  0  0  0  0  0  0  0  0  0
    6.7590  -46.7420  -15.2020 C   0  0  1  0  0  0  0  0  0  0  0  0
    6.0030  -47.4440  -17.4190 N   0  0  0  0  0  0  0  0  0  0  0  0
    7.3140  -48.1290  -17.1630 C   0  0  0  0  0  0  0  0  0  0  0  0
    5.5320  -46.8470  -16.1250 C   0  0  0  0  0  0  0  0  0  0  0  0
    7.9290  -47.4160  -15.9440 C   0  0  0  0  0  0  0  0  0  0  0  0
    4.9770  -48.4070  -17.9320 C   0  0  1  0  0  0  0  0  0  0  0  0
    3.8560  -47.6120  -18.6270 C   0  0  0  0  0  0  0  0  0  0  0  0
    1.5180  -47.3200  -19.2010 C   0  0  0  0  0  0  0  0  0  0  0  0
    1.8270  -46.1420  -19.8890 C   0  0  0  0  0  0  0  0  0  0  0  0
    2.5290  -48.0520  -18.5680 C   0  0  0  0  0  0  0  0  0  0  0  0
    3.1500  -45.7030  -19.9450 C   0  0  0  0  0  0  0  0  0  0  0  0
    4.1630  -46.4340  -19.3160 C   0  0  0  0  0  0  0  0  0  0  0  0
    3.4700  -44.5010  -20.6540 F   0  0  0  0  0  0  0  0  0  0  0  0
    2.1550  -49.3440  -17.8240 C   0  0  2  0  0  0  0  0  0  0  0  0
    2.2350  -50.5070  -18.8300 C   0  0  0  0  0  0  0  0  0  0  0  0
    0.8700  -49.2120  -17.2900 O   0  0  0  0  0  0  0  0  0  0  0  0
    1.7260  -51.8260  -18.2200 C   0  0  0  0  0  0  0  0  0  0  0  0
    0.4770  -50.3470  -16.5650 C   0  0  0  0  0  0  0  0  0  0  0  0
    0.4180  -51.6160  -17.4370 C   0  0  0  0  0  0  0  0  0  0  0  0
    5.6520  -49.3510  -18.9420 C   0  0  0  0  0  0  0  0  0  0  0  0
    6.0410  -48.9030  -19.9920 O   0  0  0  0  0  0  0  0  0  0  0  0
    5.7880  -50.5260  -18.6800 O   0  0  0  0  0  0  0  0  0  0  0  0
    6.4020  -44.5220  -15.8460 C   0  0  0  0  0  0  0  0  0  0  0  0
    7.4430  -43.4800  -16.2900 C   0  0  0  0  0  0  0  0  0  0  0  0
    8.3630  -44.0410  -17.3850 C   0  0  0  0  0  0  0  0  0  0  0  0
    7.5970  -44.4210  -18.6670 C   0  0  0  0  0  0  0  0  0  0  0  0
    8.5270  -45.2240  -19.5890 C   0  0  0  0  0  0  0  0  0  0  0  0
    7.9950  -46.1100  -20.5340 C   0  0  0  0  0  0  0  0  0  0  0  0
    9.8550  -45.0530  -19.4860 N   0  0  0  0  0  0  0  0  0  0  0  0
    8.8660  -46.8230  -21.3720 C   0  0  0  0  0  0  0  0  0  0  0  0
   10.7240  -45.7210  -20.2850 C   0  0  0  0  0  0  0  0  0  0  0  0
   10.2480  -46.6280  -21.2370 C   0  0  0  0  0  0  0  0  0  0  0  0
   12.1880  -45.4530  -20.0780 N   0  0  0  0  0  0  0  0  0  0  0  0
   11.2540  -47.3710  -22.1290 C   0  0  0  0  0  0  0  0  0  0  0  0
   13.1190  -45.8770  -21.1840 C   0  0  0  0  0  0  0  0  0  0  0  0
   12.4580  -46.4670  -22.4450 C   0  0  0  0  0  0  0  0  0  0  0  0
  2  1  1  6  0  0  0
  3  4  1  0  0  0  0
  3  5  1  0  0  0  0
  4  6  1  0  0  0  0
  5  2  1  0  0  0  0
  6  2  1  0  0  0  0
  7 21  1  6  0  0  0
  7  3  1  0  0  0  0
  8 11  1  0  0  0  0
  8  7  1  0  0  0  0
  9 11  2  0  0  0  0
 10  9  1  0  0  0  0
 12 10  2  0  0  0  0
 12 13  1  0  0  0  0
 13  8  2  0  0  0  0
 14 12  1  0  0  0  0
 15 11  1  6  0  0  0
 15 17  1  0  0  0  0
 16 18  1  0  0  0  0
 16 15  1  0  0  0  0
 17 19  1  0  0  0  0
 18 20  1  0  0  0  0
 20 19  1  0  0  0  0
 21 23  1  0  0  0  0
 22 21  2  0  0  0  0
 24  1  1  0  0  0  0
 25 24  1  0  0  0  0
 26 25  1  0  0  0  0
 27 26  1  0  0  0  0
 28 30  1  0  0  0  0
 28 27  1  0  0  0  0
 29 28  2  0  0  0  0
 31 33  2  0  0  0  0
 31 29  1  0  0  0  0
 32 34  1  0  0  0  0
 32 30  2  0  0  0  0
 33 32  1  0  0  0  0
 35 33  1  0  0  0  0
 36 34  2  0  0  0  0
 37 35  1  0  0  0  0
 37 36  1  0  0  0  0
M  END
>  <MODEL>
2

>  <REMARK>
 VINA RESULT:    -6.948      2.824      5.307
 INTER + INTRA:         -13.581
 INTER:                 -11.480
 INTRA:                  -2.101
 UNBOUND:                -2.570
 SMILES O=C([O-])[C@H](c1cc(F)ccc1[C@@H]1CCCCO1)N1CC[C@@H](OCCCCc2ccc3c(n2)N=CCC3)C1
 SMILES IDX 22 1 21 2 18 3 19 4 37 5 20 6 4 7 5 8 10 9 9 10 11 11 7 12
 SMILES IDX 6 13 8 14 12 15 13 16 17 17 14 18 16 19 15 20 2 21 1 22 3 23
 SMILES IDX 23 24 24 25 25 26 26 27 27 28 28 29 32 30 29 31 31 32 30 33
 SMILES IDX 33 34 36 35 34 36 35 37
 H PARENT

>  <TORSDO>
F 10

$$$$
