docking/v2/isoforms/avb6/gate/pose_001.pdbqt
 OpenBabel09292623493D

 37 41  0  0  1  0  0  0  0  0999 V2000
    9.7040  -44.3480  -18.8270 O   0  0  0  0  0  0  0  0  0  0  0  0
    8.5430  -43.9940  -18.1310 C   0  0  1  0  0  0  0  0  0  0  0  0
    7.1750  -45.7320  -17.0880 N   0  0  0  0  0  0  0  0  0  0  0  0
    7.6810  -44.8490  -15.9850 C   0  0  0  0  0  0  0  0  0  0  0  0
    7.4510  -45.0460  -18.3940 C   0  0  0  0  0  0  0  0  0  0  0  0
    8.8000  -43.9930  -16.6110 C   0  0  0  0  0  0  0  0  0  0  0  0
    5.7040  -45.9820  -16.9520 C   0  0  1  0  0  0  0  0  0  0  0  0
    5.4330  -47.4780  -17.2010 C   0  0  0  0  0  0  0  0  0  0  0  0
    4.0610  -49.2480  -18.1300 C   0  0  0  0  0  0  0  0  0  0  0  0
    4.9630  -50.2060  -17.6560 C   0  0  0  0  0  0  0  0  0  0  0  0
    4.2960  -47.8880  -17.9070 C   0  0  0  0  0  0  0  0  0  0  0  0
    6.0970  -49.7970  -16.9540 C   0  0  0  0  0  0  0  0  0  0  0  0
    6.3340  -48.4370  -16.7270 C   0  0  0  0  0  0  0  0  0  0  0  0
    7.0190  -50.7750  -16.4620 F   0  0  0  0  0  0  0  0  0  0  0  0
    3.2820  -46.8620  -18.4390 C   0  0  2  0  0  0  0  0  0  0  0  0
    2.0220  -47.6290  -18.8780 C   0  0  0  0  0  0  0  0  0  0  0  0
    3.8540  -46.1580  -19.5030 O   0  0  0  0  0  0  0  0  0  0  0  0
    1.0040  -46.7060  -19.5730 C   0  0  0  0  0  0  0  0  0  0  0  0
    2.9920  -45.1780  -20.0160 C   0  0  0  0  0  0  0  0  0  0  0  0
    1.6900  -45.7730  -20.5860 C   0  0  0  0  0  0  0  0  0  0  0  0
    5.2720  -45.6030  -15.5250 C   0  0  0  0  0  0  0  0  0  0  0  0
    4.4990  -44.6900  -15.3710 O   0  0  0  0  0  0  0  0  0  0  0  0
    5.7060  -46.2150  -14.5750 O   0  0  0  0  0  0  0  0  0  0  0  0
    9.4640  -44.7460  -20.1450 C   0  0  0  0  0  0  0  0  0  0  0  0
   10.1720  -46.0960  -20.3490 C   0  0  0  0  0  0  0  0  0  0  0  0
    9.3580  -47.0200  -21.2680 C   0  0  0  0  0  0  0  0  0  0  0  0
    8.1290  -47.6270  -20.5650 C   0  0  0  0  0  0  0  0  0  0  0  0
    6.8780  -47.3520  -21.4120 C   0  0  0  0  0  0  0  0  0  0  0  0
    5.8210  -48.2710  -21.4330 C   0  0  0  0  0  0  0  0  0  0  0  0
    6.8070  -46.2130  -22.1200 N   0  0  0  0  0  0  0  0  0  0  0  0
    4.6850  -47.9900  -22.2060 C   0  0  0  0  0  0  0  0  0  0  0  0
    5.7200  -45.9080  -22.8730 C   0  0  0  0  0  0  0  0  0  0  0  0
    4.6420  -46.7960  -22.9400 C   0  0  0  0  0  0  0  0  0  0  0  0
    5.7520  -44.6080  -23.6250 N   0  0  0  0  0  0  0  0  0  0  0  0
    3.4230  -46.4250  -23.8000 C   0  0  0  0  0  0  0  0  0  0  0  0
    4.4340  -44.0870  -24.1360 C   0  0  0  0  0  0  0  0  0  0  0  0
    3.1840  -44.9060  -23.7620 C   0  0  0  0  0  0  0  0  0  0  0  0
  2  1  1  6  0  0  0
  2  6  1  0  0  0  0
  3  7  1  0  0  0  0
  3  4  1  0  0  0  0
  5  2  1  0  0  0  0
  5  3  1  0  0  0  0
  6  4  1  0  0  0  0
  7 21  1  1  0  0  0
  8  7  1  0  0  0  0
  8 13  1  0  0  0  0
  9 11  1  0  0  0  0
  9 10  2  0  0  0  0
 10 12  1  0  0  0  0
 11  8  2  0  0  0  0
 12 13  2  0  0  0  0
 12 14  1  0  0  0  0
 15 11  1  6  0  0  0
 16 15  1  0  0  0  0
 17 15  1  0  0  0  0
 18 16  1  0  0  0  0
 19 17  1  0  0  0  0
 20 19  1  0  0  0  0
 20 18  1  0  0  0  0
 21 22  2  0  0  0  0
 21 23  1  0  0  0  0
 24  1  1  0  0  0  0
 25 24  1  0  0  0  0
 26 27  1  0  0  0  0
 26 25  1  0  0  0  0
 28 27  1  0  0  0  0
 29 28  1  0  0  0  0
 30 28  2  0  0  0  0
 31 29  2  0  0  0  0
 32 30  1  0  0  0  0
 33 32  2  0  0  0  0
 33 31  1  0  0  0  0
 34 32  1  0  0  0  0
 35 37  1  0  0  0  0
 35 33  1  0  0  0  0
 36 37  1  0  0  0  0
 36 34  2  0  0  0  0
M  END
>  <MODEL>
1

>  <REMARK>
 VINA RESULT:    -6.990      0.000      0.000
 INTER + INTRA:         -13.647
 INTER:                 -11.077
 INTRA:                  -2.570
 UNBOUND:                -2.570
 SMILES O=C([O-])[C@H](c1cc(F)ccc1[C@@H]1CCCCO1)N1CC[C@@H](OCCCCc2ccc3c(n2)N=CCC3)C1
 SMILES IDX 22 1 21 2 18 3 19 4 37 5 20 6 4 7 5 8 10 9 9 10 11 11 7 12
 SMILES IDX 6 13 8 14 12 15 13 16 17 17 14 18 16 19 15 20 2 21 1 22 3 23
 SMILES IDX 23 24 24 25 25 26 26 27 27 28 28 29 32 30 29 31 31 32 30 33
 SMILES IDX 33 34 36 35 34 36 35 37
 H PARENT

>  <TORSDO>
F 10

$$$$
