docking/v2/isoforms/avb6/gate/pose_010.pdbqt
 OpenBabel09292623503D

 37 41  0  0  1  0  0  0  0  0999 V2000
   11.2020  -47.7060  -15.2120 O   0  0  0  0  0  0  0  0  0  0  0  0
   10.5330  -46.6910  -15.9050 C   0  0  1  0  0  0  0  0  0  0  0  0
    8.2120  -46.1650  -15.3440 N   0  0  0  0  0  0  0  0  0  0  0  0
    9.0250  -44.9390  -15.0460 C   0  0  0  0  0  0  0  0  0  0  0  0
    9.0700  -47.1100  -16.1330 C   0  0  0  0  0  0  0  0  0  0  0  0
   10.4970  -45.3960  -15.0710 C   0  0  0  0  0  0  0  0  0  0  0  0
    6.9830  -45.8240  -16.1310 C   0  0  1  0  0  0  0  0  0  0  0  0
    6.3410  -47.1300  -16.6360 C   0  0  0  0  0  0  0  0  0  0  0  0
    5.3250  -48.4350  -18.4090 C   0  0  0  0  0  0  0  0  0  0  0  0
    5.1860  -49.5200  -17.5400 C   0  0  0  0  0  0  0  0  0  0  0  0
    5.9050  -47.2430  -17.9610 C   0  0  0  0  0  0  0  0  0  0  0  0
    5.6230  -49.4080  -16.2190 C   0  0  0  0  0  0  0  0  0  0  0  0
    6.2000  -48.2160  -15.7670 C   0  0  0  0  0  0  0  0  0  0  0  0
    5.4760  -50.5160  -15.3250 F   0  0  0  0  0  0  0  0  0  0  0  0
    6.0400  -46.0680  -18.9420 C   0  0  2  0  0  0  0  0  0  0  0  0
    4.8220  -46.0980  -19.8840 C   0  0  0  0  0  0  0  0  0  0  0  0
    7.2400  -46.1920  -19.6470 O   0  0  0  0  0  0  0  0  0  0  0  0
    4.9420  -45.0520  -21.0080 C   0  0  0  0  0  0  0  0  0  0  0  0
    7.4450  -45.1290  -20.5400 C   0  0  0  0  0  0  0  0  0  0  0  0
    6.3520  -45.0470  -21.6240 C   0  0  0  0  0  0  0  0  0  0  0  0
    6.0020  -45.0800  -15.2100 C   0  0  0  0  0  0  0  0  0  0  0  0
    5.7290  -45.5590  -14.1370 O   0  0  0  0  0  0  0  0  0  0  0  0
    5.5130  -44.0300  -15.5620 O   0  0  0  0  0  0  0  0  0  0  0  0
   11.4250  -47.4070  -13.8650 C   0  0  0  0  0  0  0  0  0  0  0  0
   12.3050  -48.5300  -13.2900 C   0  0  0  0  0  0  0  0  0  0  0  0
   13.6900  -48.5510  -13.9560 C   0  0  0  0  0  0  0  0  0  0  0  0
   14.5930  -47.3950  -13.4850 C   0  0  0  0  0  0  0  0  0  0  0  0
   15.1370  -46.6490  -14.7130 C   0  0  0  0  0  0  0  0  0  0  0  0
   14.6090  -46.9010  -15.9860 C   0  0  0  0  0  0  0  0  0  0  0  0
   16.1130  -45.7430  -14.5460 N   0  0  0  0  0  0  0  0  0  0  0  0
   15.1150  -46.1980  -17.0890 C   0  0  0  0  0  0  0  0  0  0  0  0
   16.6210  -45.0410  -15.5910 C   0  0  0  0  0  0  0  0  0  0  0  0
   16.1400  -45.2620  -16.8850 C   0  0  0  0  0  0  0  0  0  0  0  0
   17.7130  -44.0550  -15.2860 N   0  0  0  0  0  0  0  0  0  0  0  0
   16.7320  -44.4530  -18.0490 C   0  0  0  0  0  0  0  0  0  0  0  0
   18.0050  -43.0190  -16.3390 C   0  0  0  0  0  0  0  0  0  0  0  0
   17.0950  -43.0330  -17.5830 C   0  0  0  0  0  0  0  0  0  0  0  0
  1 24  1  0  0  0  0
  2  1  1  1  0  0  0
  2  6  1  0  0  0  0
  3  4  1  0  0  0  0
  5  2  1  0  0  0  0
  5  3  1  0  0  0  0
  6  4  1  0  0  0  0
  7  3  1  0  0  0  0
  7 21  1  1  0  0  0
  8  7  1  0  0  0  0
  8 13  1  0  0  0  0
  9 11  1  0  0  0  0
  9 10  2  0  0  0  0
 10 12  1  0  0  0  0
 11  8  2  0  0  0  0
 12 13  2  0  0  0  0
 12 14  1  0  0  0  0
 15 11  1  1  0  0  0
 16 15  1  0  0  0  0
 17 15  1  0  0  0  0
 18 16  1  0  0  0  0
 19 17  1  0  0  0  0
 20 18  1  0  0  0  0
 20 19  1  0  0  0  0
 21 22  1  0  0  0  0
 23 21  2  0  0  0  0
 24 25  1  0  0  0  0
 26 27  1  0  0  0  0
 26 25  1  0  0  0  0
 28 30  1  0  0  0  0
 28 27  1  0  0  0  0
 29 28  2  0  0  0  0
 31 33  2  0  0  0  0
 31 29  1  0  0  0  0
 32 34  1  0  0  0  0
 32 30  2  0  0  0  0
 33 32  1  0  0  0  0
 35 37  1  0  0  0  0
 35 33  1  0  0  0  0
 36 34  2  0  0  0  0
 37 36  1  0  0  0  0
M  END
>  <MODEL>
10

>  <REMARK>
 VINA RESULT:    -6.443      4.983      7.752
 INTER + INTRA:         -12.780
 INTER:                 -11.408
 INTRA:                  -1.372
 UNBOUND:                -2.570
 SMILES O=C([O-])[C@H](c1cc(F)ccc1[C@@H]1CCCCO1)N1CC[C@@H](OCCCCc2ccc3c(n2)N=CCC3)C1
 SMILES IDX 22 1 21 2 18 3 19 4 37 5 20 6 4 7 5 8 10 9 9 10 11 11 7 12
 SMILES IDX 6 13 8 14 12 15 13 16 17 17 14 18 16 19 15 20 2 21 1 22 3 23
 SMILES IDX 23 24 24 25 25 26 26 27 27 28 28 29 32 30 29 31 31 32 30 33
 SMILES IDX 33 34 36 35 34 36 35 37
 H PARENT

>  <TORSDO>
F 10

$$$$
