docking/v2/isoforms/avb6/gate/pose_003.pdbqt
 OpenBabel09292623493D

 37 41  0  0  1  0  0  0  0  0999 V2000
    6.4950  -44.0040  -15.6830 O   0  0  0  0  0  0  0  0  0  0  0  0
    5.9600  -45.2360  -15.2940 C   0  0  1  0  0  0  0  0  0  0  0  0
    5.6680  -47.0100  -16.9510 N   0  0  0  0  0  0  0  0  0  0  0  0
    6.6500  -47.5150  -15.9330 C   0  0  0  0  0  0  0  0  0  0  0  0
    5.0360  -45.7630  -16.4050 C   0  0  0  0  0  0  0  0  0  0  0  0
    7.0780  -46.2820  -15.1150 C   0  0  0  0  0  0  0  0  0  0  0  0
    4.6080  -48.0300  -17.2350 C   0  0  1  0  0  0  0  0  0  0  0  0
    3.6120  -47.4370  -18.2500 C   0  0  0  0  0  0  0  0  0  0  0  0
    1.4590  -47.4750  -19.3640 C   0  0  0  0  0  0  0  0  0  0  0  0
    1.8070  -46.3340  -20.0930 C   0  0  0  0  0  0  0  0  0  0  0  0
    2.3560  -48.0230  -18.4420 C   0  0  0  0  0  0  0  0  0  0  0  0
    3.0590  -45.7480  -19.9000 C   0  0  0  0  0  0  0  0  0  0  0  0
    3.9600  -46.2960  -18.9810 C   0  0  0  0  0  0  0  0  0  0  0  0
    3.4210  -44.5830  -20.6490 F   0  0  0  0  0  0  0  0  0  0  0  0
    1.9420  -49.2810  -17.6600 C   0  0  2  0  0  0  0  0  0  0  0  0
    2.1010  -50.4920  -18.5960 C   0  0  0  0  0  0  0  0  0  0  0  0
    0.6220  -49.1370  -17.2220 O   0  0  0  0  0  0  0  0  0  0  0  0
    1.5610  -51.7840  -17.9560 C   0  0  0  0  0  0  0  0  0  0  0  0
    0.1890  -50.2370  -16.4690 C   0  0  0  0  0  0  0  0  0  0  0  0
    0.2000  -51.5500  -17.2770 C   0  0  0  0  0  0  0  0  0  0  0  0
    5.2780  -49.2810  -17.8290 C   0  0  0  0  0  0  0  0  0  0  0  0
    5.7710  -49.2150  -18.9280 O   0  0  0  0  0  0  0  0  0  0  0  0
    5.3040  -50.3140  -17.1990 O   0  0  0  0  0  0  0  0  0  0  0  0
    7.8070  -44.0900  -16.1560 C   0  0  0  0  0  0  0  0  0  0  0  0
    7.7640  -43.8190  -17.6690 C   0  0  0  0  0  0  0  0  0  0  0  0
    8.1850  -45.0610  -18.4720 C   0  0  0  0  0  0  0  0  0  0  0  0
    8.5540  -44.7290  -19.9300 C   0  0  0  0  0  0  0  0  0  0  0  0
    7.4970  -45.3340  -20.8670 C   0  0  0  0  0  0  0  0  0  0  0  0
    7.2000  -46.7020  -20.8090 C   0  0  0  0  0  0  0  0  0  0  0  0
    6.8540  -44.5310  -21.7290 N   0  0  0  0  0  0  0  0  0  0  0  0
    6.2220  -47.2260  -21.6680 C   0  0  0  0  0  0  0  0  0  0  0  0
    5.8990  -45.0050  -22.5680 C   0  0  0  0  0  0  0  0  0  0  0  0
    5.5710  -46.3650  -22.5620 C   0  0  0  0  0  0  0  0  0  0  0  0
    5.2470  -44.0150  -23.4930 N   0  0  0  0  0  0  0  0  0  0  0  0
    4.4850  -46.8750  -23.5220 C   0  0  0  0  0  0  0  0  0  0  0  0
    3.9510  -44.4370  -24.1340 C   0  0  0  0  0  0  0  0  0  0  0  0
    3.3920  -45.8090  -23.7080 C   0  0  0  0  0  0  0  0  0  0  0  0
  2  1  1  6  0  0  0
  2  6  1  0  0  0  0
  3  5  1  0  0  0  0
  3  4  1  0  0  0  0
  4  6  1  0  0  0  0
  5  2  1  0  0  0  0
  7 21  1  6  0  0  0
  7  3  1  0  0  0  0
  8  7  1  0  0  0  0
  9 11  2  0  0  0  0
 10 12  2  0  0  0  0
 10  9  1  0  0  0  0
 11  8  1  0  0  0  0
 12 13  1  0  0  0  0
 13  8  2  0  0  0  0
 14 12  1  0  0  0  0
 15 11  1  6  0  0  0
 15 17  1  0  0  0  0
 16 18  1  0  0  0  0
 16 15  1  0  0  0  0
 17 19  1  0  0  0  0
 18 20  1  0  0  0  0
 20 19  1  0  0  0  0
 21 23  1  0  0  0  0
 22 21  2  0  0  0  0
 24  1  1  0  0  0  0
 25 24  1  0  0  0  0
 26 25  1  0  0  0  0
 27 26  1  0  0  0  0
 28 29  1  0  0  0  0
 28 27  1  0  0  0  0
 30 28  2  0  0  0  0
 31 29  2  0  0  0  0
 32 33  2  0  0  0  0
 32 30  1  0  0  0  0
 33 31  1  0  0  0  0
 34 32  1  0  0  0  0
 35 33  1  0  0  0  0
 36 37  1  0  0  0  0
 36 34  2  0  0  0  0
 37 35  1  0  0  0  0
M  END
>  <MODEL>
3

>  <REMARK>
 VINA RESULT:    -6.925      2.464      3.905
 INTER + INTRA:         -13.544
 INTER:                 -11.046
 INTRA:                  -2.498
 UNBOUND:                -2.570
 SMILES O=C([O-])[C@H](c1cc(F)ccc1[C@@H]1CCCCO1)N1CC[C@@H](OCCCCc2ccc3c(n2)N=CCC3)C1
 SMILES IDX 22 1 21 2 18 3 19 4 37 5 20 6 4 7 5 8 10 9 9 10 11 11 7 12
 SMILES IDX 6 13 8 14 12 15 13 16 17 17 14 18 16 19 15 20 2 21 1 22 3 23
 SMILES IDX 23 24 24 25 25 26 26 27 27 28 28 29 32 30 29 31 31 32 30 33
 SMILES IDX 33 34 36 35 34 36 35 37
 H PARENT

>  <TORSDO>
F 10

$$$$
