docking/v2/isoforms/avb6/gate/pose_007.pdbqt
 OpenBabel09292623503D

 37 41  0  0  1  0  0  0  0  0999 V2000
    7.0970  -45.4280  -14.9730 O   0  0  0  0  0  0  0  0  0  0  0  0
    6.7470  -46.7770  -15.1020 C   0  0  1  0  0  0  0  0  0  0  0  0
    5.9270  -47.6180  -17.2460 N   0  0  0  0  0  0  0  0  0  0  0  0
    7.2060  -48.3440  -16.9490 C   0  0  0  0  0  0  0  0  0  0  0  0
    5.5040  -46.8960  -16.0000 C   0  0  0  0  0  0  0  0  0  0  0  0
    7.8730  -47.5660  -15.7980 C   0  0  0  0  0  0  0  0  0  0  0  0
    4.8480  -48.5690  -17.6680 C   0  0  1  0  0  0  0  0  0  0  0  0
    3.7610  -47.7800  -18.4230 C   0  0  0  0  0  0  0  0  0  0  0  0
    1.4500  -47.4800  -19.0900 C   0  0  0  0  0  0  0  0  0  0  0  0
    1.7950  -46.3220  -19.7930 C   0  0  0  0  0  0  0  0  0  0  0  0
    2.4290  -48.2050  -18.4030 C   0  0  0  0  0  0  0  0  0  0  0  0
    3.1240  -45.8970  -19.8120 C   0  0  0  0  0  0  0  0  0  0  0  0
    4.1060  -46.6230  -19.1280 C   0  0  0  0  0  0  0  0  0  0  0  0
    3.4820  -44.7160  -20.5360 F   0  0  0  0  0  0  0  0  0  0  0  0
    2.0140  -49.4760  -17.6420 C   0  0  2  0  0  0  0  0  0  0  0  0
    2.0100  -50.6450  -18.6440 C   0  0  0  0  0  0  0  0  0  0  0  0
    0.7530  -49.2800  -17.0720 O   0  0  0  0  0  0  0  0  0  0  0  0
    1.4560  -51.9360  -18.0130 C   0  0  0  0  0  0  0  0  0  0  0  0
    0.3270  -50.3920  -16.3310 C   0  0  0  0  0  0  0  0  0  0  0  0
    0.1820  -51.6600  -17.1950 C   0  0  0  0  0  0  0  0  0  0  0  0
    5.4650  -49.6290  -18.5960 C   0  0  0  0  0  0  0  0  0  0  0  0
    5.5090  -50.7760  -18.2260 O   0  0  0  0  0  0  0  0  0  0  0  0
    5.8980  -49.3110  -19.6810 O   0  0  0  0  0  0  0  0  0  0  0  0
    6.6100  -44.6250  -16.0090 C   0  0  0  0  0  0  0  0  0  0  0  0
    7.7340  -43.6480  -16.3930 C   0  0  0  0  0  0  0  0  0  0  0  0
    7.9890  -43.6580  -17.9090 C   0  0  0  0  0  0  0  0  0  0  0  0
    7.2850  -44.8290  -18.6220 C   0  0  0  0  0  0  0  0  0  0  0  0
    8.2870  -45.5250  -19.5560 C   0  0  0  0  0  0  0  0  0  0  0  0
    7.8330  -46.3350  -20.6040 C   0  0  0  0  0  0  0  0  0  0  0  0
    9.6010  -45.3330  -19.3610 N   0  0  0  0  0  0  0  0  0  0  0  0
    8.7680  -46.9500  -21.4490 C   0  0  0  0  0  0  0  0  0  0  0  0
   10.5320  -45.9080  -20.1640 C   0  0  0  0  0  0  0  0  0  0  0  0
   10.1350  -46.7360  -21.2180 C   0  0  0  0  0  0  0  0  0  0  0  0
   11.9750  -45.6260  -19.8500 N   0  0  0  0  0  0  0  0  0  0  0  0
   11.2100  -47.3730  -22.1120 C   0  0  0  0  0  0  0  0  0  0  0  0
   12.9760  -45.9270  -20.9340 C   0  0  0  0  0  0  0  0  0  0  0  0
   12.4030  -46.4170  -22.2780 C   0  0  0  0  0  0  0  0  0  0  0  0
  2  1  1  6  0  0  0
  3  4  1  0  0  0  0
  3  5  1  0  0  0  0
  4  6  1  0  0  0  0
  5  2  1  0  0  0  0
  6  2  1  0  0  0  0
  7 21  1  6  0  0  0
  7  3  1  0  0  0  0
  8 11  1  0  0  0  0
  8  7  1  0  0  0  0
  9 11  2  0  0  0  0
 10  9  1  0  0  0  0
 12 10  2  0  0  0  0
 12 13  1  0  0  0  0
 13  8  2  0  0  0  0
 14 12  1  0  0  0  0
 15 11  1  6  0  0  0
 15 17  1  0  0  0  0
 16 18  1  0  0  0  0
 16 15  1  0  0  0  0
 17 19  1  0  0  0  0
 18 20  1  0  0  0  0
 20 19  1  0  0  0  0
 21 22  1  0  0  0  0
 23 21  2  0  0  0  0
 24  1  1  0  0  0  0
 25 24  1  0  0  0  0
 26 25  1  0  0  0  0
 27 26  1  0  0  0  0
 28 30  1  0  0  0  0
 28 27  1  0  0  0  0
 29 28  2  0  0  0  0
 31 33  2  0  0  0  0
 31 29  1  0  0  0  0
 32 34  1  0  0  0  0
 32 30  2  0  0  0  0
 33 32  1  0  0  0  0
 35 33  1  0  0  0  0
 36 34  2  0  0  0  0
 37 35  1  0  0  0  0
 37 36  1  0  0  0  0
M  END
>  <MODEL>
7

>  <REMARK>
 VINA RESULT:    -6.770      2.819      5.287
 INTER + INTRA:         -13.298
 INTER:                 -11.281
 INTRA:                  -2.017
 UNBOUND:                -2.570
 SMILES O=C([O-])[C@H](c1cc(F)ccc1[C@@H]1CCCCO1)N1CC[C@@H](OCCCCc2ccc3c(n2)N=CCC3)C1
 SMILES IDX 22 1 21 2 18 3 19 4 37 5 20 6 4 7 5 8 10 9 9 10 11 11 7 12
 SMILES IDX 6 13 8 14 12 15 13 16 17 17 14 18 16 19 15 20 2 21 1 22 3 23
 SMILES IDX 23 24 24 25 25 26 26 27 27 28 28 29 32 30 29 31 31 32 30 33
 SMILES IDX 33 34 36 35 34 36 35 37
 H PARENT

>  <TORSDO>
F 10

$$$$
