docking/v2/isoforms/avb6/gate/pose_008.pdbqt
 OpenBabel09292623503D

 37 41  0  0  1  0  0  0  0  0999 V2000
   10.0020  -45.9990  -18.6900 O   0  0  0  0  0  0  0  0  0  0  0  0
    8.7360  -45.4170  -18.8220 C   0  0  1  0  0  0  0  0  0  0  0  0
    7.1650  -45.4910  -16.9510 N   0  0  0  0  0  0  0  0  0  0  0  0
    7.4680  -44.0450  -17.2140 C   0  0  0  0  0  0  0  0  0  0  0  0
    7.6960  -46.2930  -18.1030 C   0  0  0  0  0  0  0  0  0  0  0  0
    8.7000  -44.0360  -18.1390 C   0  0  0  0  0  0  0  0  0  0  0  0
    5.6910  -45.7210  -16.8140 C   0  0  1  0  0  0  0  0  0  0  0  0
    5.4230  -47.2380  -16.8360 C   0  0  0  0  0  0  0  0  0  0  0  0
    4.1890  -49.1520  -17.6690 C   0  0  0  0  0  0  0  0  0  0  0  0
    4.9590  -50.0040  -16.8730 C   0  0  0  0  0  0  0  0  0  0  0  0
    4.4220  -47.7730  -17.6550 C   0  0  0  0  0  0  0  0  0  0  0  0
    5.9590  -49.4720  -16.0590 C   0  0  0  0  0  0  0  0  0  0  0  0
    6.1920  -48.0920  -16.0390 C   0  0  0  0  0  0  0  0  0  0  0  0
    6.7460  -50.3410  -15.2370 F   0  0  0  0  0  0  0  0  0  0  0  0
    3.5540  -46.8640  -18.5400 C   0  0  2  0  0  0  0  0  0  0  0  0
    2.1430  -47.4780  -18.6070 C   0  0  0  0  0  0  0  0  0  0  0  0
    4.1340  -46.7660  -19.8080 O   0  0  0  0  0  0  0  0  0  0  0  0
    1.2380  -46.7260  -19.5990 C   0  0  0  0  0  0  0  0  0  0  0  0
    3.4090  -45.9200  -20.6600 C   0  0  0  0  0  0  0  0  0  0  0  0
    1.9750  -46.4240  -20.9160 C   0  0  0  0  0  0  0  0  0  0  0  0
    5.2240  -45.1270  -15.4740 C   0  0  0  0  0  0  0  0  0  0  0  0
    4.2460  -44.4210  -15.4560 O   0  0  0  0  0  0  0  0  0  0  0  0
    5.8330  -45.3690  -14.4560 O   0  0  0  0  0  0  0  0  0  0  0  0
   10.0760  -46.9440  -17.6620 C   0  0  0  0  0  0  0  0  0  0  0  0
   10.9880  -46.3580  -16.5710 C   0  0  0  0  0  0  0  0  0  0  0  0
   10.1750  -45.9040  -15.3480 C   0  0  0  0  0  0  0  0  0  0  0  0
   11.0670  -45.4960  -14.1600 C   0  0  0  0  0  0  0  0  0  0  0  0
   11.9730  -46.6780  -13.7810 C   0  0  0  0  0  0  0  0  0  0  0  0
   13.3580  -46.5990  -13.9780 C   0  0  0  0  0  0  0  0  0  0  0  0
   11.4200  -47.7780  -13.2470 N   0  0  0  0  0  0  0  0  0  0  0  0
   14.1630  -47.6880  -13.6130 C   0  0  0  0  0  0  0  0  0  0  0  0
   12.1710  -48.8450  -12.8780 C   0  0  0  0  0  0  0  0  0  0  0  0
   13.5570  -48.8260  -13.0630 C   0  0  0  0  0  0  0  0  0  0  0  0
   11.4450  -50.0240  -12.2930 N   0  0  0  0  0  0  0  0  0  0  0  0
   14.3840  -50.0490  -12.6350 C   0  0  0  0  0  0  0  0  0  0  0  0
   12.2770  -51.0280  -11.5390 C   0  0  0  0  0  0  0  0  0  0  0  0
   13.7730  -50.6950  -11.3800 C   0  0  0  0  0  0  0  0  0  0  0  0
  1 24  1  0  0  0  0
  2  1  1  1  0  0  0
  2  6  1  0  0  0  0
  2  5  1  0  0  0  0
  3  7  1  0  0  0  0
  4  3  1  0  0  0  0
  5  3  1  0  0  0  0
  6  4  1  0  0  0  0
  7 21  1  1  0  0  0
  8  7  1  0  0  0  0
  8 13  1  0  0  0  0
  9 11  1  0  0  0  0
  9 10  2  0  0  0  0
 10 12  1  0  0  0  0
 11  8  2  0  0  0  0
 12 13  2  0  0  0  0
 12 14  1  0  0  0  0
 15 11  1  1  0  0  0
 16 15  1  0  0  0  0
 17 15  1  0  0  0  0
 18 16  1  0  0  0  0
 19 17  1  0  0  0  0
 20 19  1  0  0  0  0
 20 18  1  0  0  0  0
 21 22  2  0  0  0  0
 21 23  1  0  0  0  0
 24 25  1  0  0  0  0
 25 26  1  0  0  0  0
 26 27  1  0  0  0  0
 27 28  1  0  0  0  0
 28 30  1  0  0  0  0
 29 28  2  0  0  0  0
 29 31  1  0  0  0  0
 30 32  2  0  0  0  0
 31 33  2  0  0  0  0
 32 34  1  0  0  0  0
 33 32  1  0  0  0  0
 33 35  1  0  0  0  0
 34 36  2  0  0  0  0
 35 37  1  0  0  0  0
 36 37  1  0  0  0  0
M  END
>  <MODEL>
8

>  <REMARK>
 VINA RESULT:    -6.763      4.057      7.260
 INTER + INTRA:         -13.286
 INTER:                 -11.873
 INTRA:                  -1.413
 UNBOUND:                -2.570
 SMILES O=C([O-])[C@H](c1cc(F)ccc1[C@@H]1CCCCO1)N1CC[C@@H](OCCCCc2ccc3c(n2)N=CCC3)C1
 SMILES IDX 22 1 21 2 18 3 19 4 37 5 20 6 4 7 5 8 10 9 9 10 11 11 7 12
 SMILES IDX 6 13 8 14 12 15 13 16 17 17 14 18 16 19 15 20 2 21 1 22 3 23
 SMILES IDX 23 24 24 25 25 26 26 27 27 28 28 29 32 30 29 31 31 32 30 33
 SMILES IDX 33 34 36 35 34 36 35 37
 H PARENT

>  <TORSDO>
F 10

$$$$
