docking/v2/isoforms/avb6/gate/pose_009.pdbqt
 OpenBabel09292623503D

 37 41  0  0  1  0  0  0  0  0999 V2000
    9.6430  -45.4170  -19.2900 O   0  0  0  0  0  0  0  0  0  0  0  0
    8.4010  -44.8220  -19.0430 C   0  0  1  0  0  0  0  0  0  0  0  0
    7.0250  -45.6110  -17.1830 N   0  0  0  0  0  0  0  0  0  0  0  0
    7.3710  -44.1780  -16.8980 C   0  0  0  0  0  0  0  0  0  0  0  0
    7.3970  -45.9020  -18.6070 C   0  0  0  0  0  0  0  0  0  0  0  0
    8.5020  -43.8160  -17.8800 C   0  0  0  0  0  0  0  0  0  0  0  0
    5.5630  -45.8670  -16.9810 C   0  0  1  0  0  0  0  0  0  0  0  0
    5.2940  -47.3720  -17.1660 C   0  0  0  0  0  0  0  0  0  0  0  0
    3.9760  -49.1830  -18.0950 C   0  0  0  0  0  0  0  0  0  0  0  0
    4.8310  -50.1180  -17.5030 C   0  0  0  0  0  0  0  0  0  0  0  0
    4.2090  -47.8140  -17.9310 C   0  0  0  0  0  0  0  0  0  0  0  0
    5.9140  -49.6780  -16.7420 C   0  0  0  0  0  0  0  0  0  0  0  0
    6.1480  -48.3080  -16.5730 C   0  0  0  0  0  0  0  0  0  0  0  0
    6.7870  -50.6330  -16.1290 F   0  0  0  0  0  0  0  0  0  0  0  0
    3.2480  -46.8130  -18.5930 C   0  0  2  0  0  0  0  0  0  0  0  0
    1.9600  -47.5710  -18.9650 C   0  0  0  0  0  0  0  0  0  0  0  0
    3.8630  -46.2590  -19.7190 O   0  0  0  0  0  0  0  0  0  0  0  0
    0.9930  -46.6900  -19.7770 C   0  0  0  0  0  0  0  0  0  0  0  0
    3.0520  -45.3070  -20.3550 C   0  0  0  0  0  0  0  0  0  0  0  0
    1.7320  -45.9080  -20.8770 C   0  0  0  0  0  0  0  0  0  0  0  0
    5.1820  -45.4390  -15.5530 C   0  0  0  0  0  0  0  0  0  0  0  0
    5.7090  -45.9890  -14.6180 O   0  0  0  0  0  0  0  0  0  0  0  0
    4.3650  -44.5640  -15.3770 O   0  0  0  0  0  0  0  0  0  0  0  0
    9.5510  -46.7540  -19.6870 C   0  0  0  0  0  0  0  0  0  0  0  0
    9.5920  -46.7750  -21.2250 C   0  0  0  0  0  0  0  0  0  0  0  0
    8.8290  -47.9850  -21.7870 C   0  0  0  0  0  0  0  0  0  0  0  0
    7.4940  -48.2360  -21.0600 C   0  0  0  0  0  0  0  0  0  0  0  0
    6.3420  -47.7020  -21.9260 C   0  0  0  0  0  0  0  0  0  0  0  0
    5.1790  -48.4620  -22.1040 C   0  0  0  0  0  0  0  0  0  0  0  0
    6.4620  -46.4930  -22.4950 N   0  0  0  0  0  0  0  0  0  0  0  0
    4.1380  -47.9460  -22.8890 C   0  0  0  0  0  0  0  0  0  0  0  0
    5.4710  -45.9620  -23.2550 C   0  0  0  0  0  0  0  0  0  0  0  0
    4.2930  -46.6830  -23.4770 C   0  0  0  0  0  0  0  0  0  0  0  0
    5.7150  -44.6020  -23.8460 N   0  0  0  0  0  0  0  0  0  0  0  0
    3.1870  -46.0570  -24.3410 C   0  0  0  0  0  0  0  0  0  0  0  0
    4.5090  -43.8540  -24.3510 C   0  0  0  0  0  0  0  0  0  0  0  0
    3.1430  -44.5340  -24.1330 C   0  0  0  0  0  0  0  0  0  0  0  0
  2  1  1  1  0  0  0
  2  5  1  0  0  0  0
  2  6  1  0  0  0  0
  3  7  1  0  0  0  0
  3  4  1  0  0  0  0
  5  3  1  0  0  0  0
  6  4  1  0  0  0  0
  7 21  1  1  0  0  0
  8  7  1  0  0  0  0
  8 13  1  0  0  0  0
  9 11  1  0  0  0  0
  9 10  2  0  0  0  0
 10 12  1  0  0  0  0
 11  8  2  0  0  0  0
 12 13  2  0  0  0  0
 12 14  1  0  0  0  0
 15 11  1  6  0  0  0
 16 15  1  0  0  0  0
 17 15  1  0  0  0  0
 18 16  1  0  0  0  0
 19 17  1  0  0  0  0
 20 19  1  0  0  0  0
 20 18  1  0  0  0  0
 21 23  2  0  0  0  0
 21 22  1  0  0  0  0
 24  1  1  0  0  0  0
 25 24  1  0  0  0  0
 26 25  1  0  0  0  0
 26 27  1  0  0  0  0
 28 27  1  0  0  0  0
 29 28  1  0  0  0  0
 30 28  2  0  0  0  0
 31 29  2  0  0  0  0
 32 30  1  0  0  0  0
 33 32  2  0  0  0  0
 33 31  1  0  0  0  0
 34 32  1  0  0  0  0
 35 37  1  0  0  0  0
 35 33  1  0  0  0  0
 36 37  1  0  0  0  0
 36 34  2  0  0  0  0
M  END
>  <MODEL>
9

>  <REMARK>
 VINA RESULT:    -6.738      0.637      0.888
 INTER + INTRA:         -13.247
 INTER:                 -10.549
 INTRA:                  -2.699
 UNBOUND:                -2.570
 SMILES O=C([O-])[C@H](c1cc(F)ccc1[C@@H]1CCCCO1)N1CC[C@@H](OCCCCc2ccc3c(n2)N=CCC3)C1
 SMILES IDX 22 1 21 2 18 3 19 4 37 5 20 6 4 7 5 8 10 9 9 10 11 11 7 12
 SMILES IDX 6 13 8 14 12 15 13 16 17 17 14 18 16 19 15 20 2 21 1 22 3 23
 SMILES IDX 23 24 24 25 25 26 26 27 27 28 28 29 32 30 29 31 31 32 30 33
 SMILES IDX 33 34 36 35 34 36 35 37
 H PARENT

>  <TORSDO>
F 10

$$$$
