docking/v2/isoforms/avb6/gate/pose_005.pdbqt
 OpenBabel09292623493D

 37 41  0  0  1  0  0  0  0  0999 V2000
    9.6830  -44.3540  -18.8480 O   0  0  0  0  0  0  0  0  0  0  0  0
    8.5250  -44.0160  -18.1380 C   0  0  1  0  0  0  0  0  0  0  0  0
    7.1920  -45.7730  -17.0840 N   0  0  0  0  0  0  0  0  0  0  0  0
    7.6990  -44.8860  -15.9850 C   0  0  0  0  0  0  0  0  0  0  0  0
    7.4440  -45.0810  -18.3910 C   0  0  0  0  0  0  0  0  0  0  0  0
    8.7990  -44.0150  -16.6210 C   0  0  0  0  0  0  0  0  0  0  0  0
    5.7260  -46.0430  -16.9320 C   0  0  1  0  0  0  0  0  0  0  0  0
    5.4740  -47.5460  -17.1590 C   0  0  0  0  0  0  0  0  0  0  0  0
    4.1060  -49.3490  -18.0270 C   0  0  0  0  0  0  0  0  0  0  0  0
    5.0400  -50.2850  -17.5740 C   0  0  0  0  0  0  0  0  0  0  0  0
    4.3230  -47.9820  -17.8240 C   0  0  0  0  0  0  0  0  0  0  0  0
    6.1890  -49.8500  -16.9120 C   0  0  0  0  0  0  0  0  0  0  0  0
    6.4070  -48.4830  -16.7050 C   0  0  0  0  0  0  0  0  0  0  0  0
    7.1440  -50.8060  -16.4420 F   0  0  0  0  0  0  0  0  0  0  0  0
    3.2740  -46.9800  -18.3320 C   0  0  2  0  0  0  0  0  0  0  0  0
    2.0410  -47.7800  -18.7910 C   0  0  0  0  0  0  0  0  0  0  0  0
    3.8210  -46.2310  -19.3780 O   0  0  0  0  0  0  0  0  0  0  0  0
    0.9920  -46.8770  -19.4640 C   0  0  0  0  0  0  0  0  0  0  0  0
    2.9260  -45.2690  -19.8680 C   0  0  0  0  0  0  0  0  0  0  0  0
    1.6450  -45.8960  -20.4540 C   0  0  0  0  0  0  0  0  0  0  0  0
    5.3010  -45.6510  -15.5060 C   0  0  0  0  0  0  0  0  0  0  0  0
    5.7290  -46.2820  -14.5730 O   0  0  0  0  0  0  0  0  0  0  0  0
    4.5450  -44.7210  -15.3310 O   0  0  0  0  0  0  0  0  0  0  0  0
    9.4320  -44.7540  -20.1630 C   0  0  0  0  0  0  0  0  0  0  0  0
   10.2630  -46.0230  -20.4180 C   0  0  0  0  0  0  0  0  0  0  0  0
    9.4950  -47.0280  -21.2920 C   0  0  0  0  0  0  0  0  0  0  0  0
    8.3250  -47.6930  -20.5430 C   0  0  0  0  0  0  0  0  0  0  0  0
    7.0300  -47.4780  -21.3400 C   0  0  0  0  0  0  0  0  0  0  0  0
    5.9600  -48.3730  -21.2080 C   0  0  0  0  0  0  0  0  0  0  0  0
    6.9340  -46.4140  -22.1530 N   0  0  0  0  0  0  0  0  0  0  0  0
    4.7840  -48.1470  -21.9390 C   0  0  0  0  0  0  0  0  0  0  0  0
    5.8090  -46.1630  -22.8680 C   0  0  0  0  0  0  0  0  0  0  0  0
    4.7150  -47.0300  -22.7840 C   0  0  0  0  0  0  0  0  0  0  0  0
    5.8150  -44.9440  -23.7470 N   0  0  0  0  0  0  0  0  0  0  0  0
    3.4530  -46.7210  -23.6050 C   0  0  0  0  0  0  0  0  0  0  0  0
    4.4770  -44.4490  -24.2310 C   0  0  0  0  0  0  0  0  0  0  0  0
    3.2390  -45.2020  -23.7050 C   0  0  0  0  0  0  0  0  0  0  0  0
  2  1  1  6  0  0  0
  2  6  1  0  0  0  0
  3  7  1  0  0  0  0
  3  4  1  0  0  0  0
  5  2  1  0  0  0  0
  5  3  1  0  0  0  0
  6  4  1  0  0  0  0
  7 21  1  1  0  0  0
  8  7  1  0  0  0  0
  8 13  1  0  0  0  0
  9 11  1  0  0  0  0
  9 10  2  0  0  0  0
 10 12  1  0  0  0  0
 11  8  2  0  0  0  0
 12 13  2  0  0  0  0
 12 14  1  0  0  0  0
 15 11  1  6  0  0  0
 16 15  1  0  0  0  0
 17 15  1  0  0  0  0
 18 16  1  0  0  0  0
 19 17  1  0  0  0  0
 20 19  1  0  0  0  0
 20 18  1  0  0  0  0
 21 23  2  0  0  0  0
 21 22  1  0  0  0  0
 24  1  1  0  0  0  0
 25 24  1  0  0  0  0
 26 27  1  0  0  0  0
 26 25  1  0  0  0  0
 28 29  1  0  0  0  0
 28 27  1  0  0  0  0
 30 28  2  0  0  0  0
 31 29  2  0  0  0  0
 32 33  2  0  0  0  0
 32 30  1  0  0  0  0
 33 31  1  0  0  0  0
 34 32  1  0  0  0  0
 35 33  1  0  0  0  0
 36 34  2  0  0  0  0
 36 37  1  0  0  0  0
 37 35  1  0  0  0  0
M  END
>  <MODEL>
5

>  <REMARK>
 VINA RESULT:    -6.872      0.190      0.524
 INTER + INTRA:         -13.460
 INTER:                 -10.853
 INTRA:                  -2.607
 UNBOUND:                -2.570
 SMILES O=C([O-])[C@H](c1cc(F)ccc1[C@@H]1CCCCO1)N1CC[C@@H](OCCCCc2ccc3c(n2)N=CCC3)C1
 SMILES IDX 22 1 21 2 18 3 19 4 37 5 20 6 4 7 5 8 10 9 9 10 11 11 7 12
 SMILES IDX 6 13 8 14 12 15 13 16 17 17 14 18 16 19 15 20 2 21 1 22 3 23
 SMILES IDX 23 24 24 25 25 26 26 27 27 28 28 29 32 30 29 31 31 32 30 33
 SMILES IDX 33 34 36 35 34 36 35 37
 H PARENT

>  <TORSDO>
F 10

$$$$
