docking/v2/isoforms/avb6/XTAL_avb6.pdbqt
 OpenBabel09292623503D

 37 41  0  0  1  0  0  0  0  0999 V2000
    9.6900  -45.8370  -19.5200 O   0  0  0  0  0  0  0  0  0  0  0  0
    8.4760  -45.1450  -19.4510 C   0  0  1  0  0  0  0  0  0  0  0  0
    7.1700  -45.1880  -17.3850 N   0  0  0  0  0  0  0  0  0  0  0  0
    7.5640  -43.7600  -17.6270 C   0  0  0  0  0  0  0  0  0  0  0  0
    7.4670  -45.9680  -18.6320 C   0  0  0  0  0  0  0  0  0  0  0  0
    8.6560  -43.8040  -18.7130 C   0  0  0  0  0  0  0  0  0  0  0  0
    5.7130  -45.3010  -17.0550 C   0  0  1  0  0  0  0  0  0  0  0  0
    5.3250  -46.7920  -17.0330 C   0  0  0  0  0  0  0  0  0  0  0  0
    3.9960  -48.6400  -17.8670 C   0  0  0  0  0  0  0  0  0  0  0  0
    4.6430  -49.5120  -16.9870 C   0  0  0  0  0  0  0  0  0  0  0  0
    4.3380  -47.2840  -17.8940 C   0  0  0  0  0  0  0  0  0  0  0  0
    5.6290  -49.0220  -16.1300 C   0  0  0  0  0  0  0  0  0  0  0  0
    5.9710  -47.6650  -16.1520 C   0  0  0  0  0  0  0  0  0  0  0  0
    6.2890  -49.9110  -15.2230 F   0  0  0  0  0  0  0  0  0  0  0  0
    3.6040  -46.3520  -18.8720 C   0  0  2  0  0  0  0  0  0  0  0  0
    2.1460  -46.8350  -18.9790 C   0  0  0  0  0  0  0  0  0  0  0  0
    4.2500  -46.3840  -20.1110 O   0  0  0  0  0  0  0  0  0  0  0  0
    1.3650  -46.0610  -20.0570 C   0  0  0  0  0  0  0  0  0  0  0  0
    3.6510  -45.5260  -21.0450 C   0  0  0  0  0  0  0  0  0  0  0  0
    2.1890  -45.9080  -21.3480 C   0  0  0  0  0  0  0  0  0  0  0  0
    5.4740  -44.6780  -15.6690 C   0  0  0  0  0  0  0  0  0  0  0  0
    4.3450  -44.4270  -15.3270 O   0  0  0  0  0  0  0  0  0  0  0  0
    6.4100  -44.4450  -14.9370 O   0  0  0  0  0  0  0  0  0  0  0  0
   10.5210  -45.4020  -20.5560 C   0  0  0  0  0  0  0  0  0  0  0  0
   11.4770  -46.5600  -20.8890 C   0  0  0  0  0  0  0  0  0  0  0  0
   12.7700  -46.0470  -21.5420 C   0  0  0  0  0  0  0  0  0  0  0  0
   13.7230  -47.1870  -21.9490 C   0  0  0  0  0  0  0  0  0  0  0  0
   13.9840  -47.1090  -23.4610 C   0  0  0  0  0  0  0  0  0  0  0  0
   13.3090  -47.9650  -24.3410 C   0  0  0  0  0  0  0  0  0  0  0  0
   14.8560  -46.2010  -23.9260 N   0  0  0  0  0  0  0  0  0  0  0  0
   13.5570  -47.8650  -25.7180 C   0  0  0  0  0  0  0  0  0  0  0  0
   15.1140  -46.0740  -25.2520 C   0  0  0  0  0  0  0  0  0  0  0  0
   14.4780  -46.9110  -26.1740 C   0  0  0  0  0  0  0  0  0  0  0  0
   16.1110  -45.0250  -25.6580 N   0  0  0  0  0  0  0  0  0  0  0  0
   14.7880  -46.7450  -27.6700 C   0  0  0  0  0  0  0  0  0  0  0  0
   16.1150  -44.6180  -27.1080 C   0  0  0  0  0  0  0  0  0  0  0  0
   15.0400  -45.2650  -28.0030 C   0  0  0  0  0  0  0  0  0  0  0  0
  2  1  1  1  0  0  0
  2  6  1  0  0  0  0
  2  5  1  0  0  0  0
  3  7  1  0  0  0  0
  4  3  1  0  0  0  0
  5  3  1  0  0  0  0
  6  4  1  0  0  0  0
  7  8  1  0  0  0  0
  7 21  1  1  0  0  0
  8 13  1  0  0  0  0
  9 10  2  0  0  0  0
 10 12  1  0  0  0  0
 11  9  1  0  0  0  0
 11  8  2  0  0  0  0
 12 14  1  0  0  0  0
 13 12  2  0  0  0  0
 15 11  1  1  0  0  0
 16 15  1  0  0  0  0
 17 15  1  0  0  0  0
 18 16  1  0  0  0  0
 19 17  1  0  0  0  0
 20 19  1  0  0  0  0
 20 18  1  0  0  0  0
 21 22  2  0  0  0  0
 21 23  1  0  0  0  0
 24  1  1  0  0  0  0
 25 24  1  0  0  0  0
 26 25  1  0  0  0  0
 27 26  1  0  0  0  0
 28 27  1  0  0  0  0
 29 28  2  0  0  0  0
 30 28  1  0  0  0  0
 31 29  1  0  0  0  0
 32 30  2  0  0  0  0
 33 31  2  0  0  0  0
 33 32  1  0  0  0  0
 34 32  1  0  0  0  0
 35 33  1  0  0  0  0
 36 34  2  0  0  0  0
 37 35  1  0  0  0  0
 37 36  1  0  0  0  0
M  END
>  <REMARK>
 SMILES O=C([O-])[C@H](c1cc(F)ccc1[C@@H]1CCCCO1)N1CC[C@@H](OCCCCc2ccc3c(n2)N=CCC3)C1
 SMILES IDX 22 1 21 2 18 3 19 4 37 5 20 6 4 7 5 8 10 9 9 10 11 11 7 12
 SMILES IDX 6 13 8 14 12 15 13 16 17 17 14 18 16 19 15 20 2 21 1 22 3 23
 SMILES IDX 23 24 24 25 25 26 26 27 27 28 28 29 32 30 29 31 31 32 30 33
 SMILES IDX 33 34 36 35 34 36 35 37
 H PARENT

>  <TORSDO>
F 10

$$$$
